
     RDKit          3D

 25 27  0  0  0  0  0  0  0  0999 V2000
    8.1443    4.1549   23.0090 C   0  0  0  0  0  0  0  0  0  0  0  0
    7.5865    2.9401   22.5215 O   0  0  0  0  0  0  0  0  0  0  0  0
    6.9706    2.1360   23.4456 C   0  0  0  0  0  0  0  0  0  0  0  0
    7.6302    1.1787   24.2204 C   0  0  0  0  0  0  0  0  0  0  0  0
    6.9316    0.3803   25.1473 C   0  0  0  0  0  0  0  0  0  0  0  0
    7.7074   -0.6809   25.9262 C   0  0  1  0  0  0  0  0  0  0  0  0
    7.1944   -0.9204   27.3636 C   0  0  0  0  0  0  0  0  0  0  0  0
    6.1098   -1.9883   27.4816 C   0  0  0  0  0  0  0  0  0  0  0  0
    5.2669   -1.9758   28.3744 O   0  0  0  0  0  0  0  0  0  0  0  0
    6.1710   -3.0300   26.5838 N   0  0  0  0  0  0  0  0  0  0  0  0
    7.0107   -3.0379   25.5103 C   0  0  0  0  0  0  0  0  0  0  0  0
    7.7298   -1.9703   25.1931 C   0  0  0  0  0  0  0  0  0  0  0  0
    8.5198   -2.3321   24.0240 C   0  0  0  0  0  0  0  0  0  0  0  0
    9.3460   -1.6212   23.4829 O   0  0  0  0  0  0  0  0  0  0  0  0
    8.1998   -3.6070   23.6517 O   0  0  0  0  0  0  0  0  0  0  0  0
    7.2094   -4.1499   24.5485 C   0  0  0  0  0  0  0  0  0  0  0  0
    7.7908   -5.4011   25.2022 C   0  0  0  0  0  0  0  0  0  0  0  0
    5.9530   -4.4691   23.7418 C   0  0  0  0  0  0  0  0  0  0  0  0
    5.5422    0.5597   25.2776 C   0  0  0  0  0  0  0  0  0  0  0  0
    4.8655    1.5293   24.5293 C   0  0  0  0  0  0  0  0  0  0  0  0
    3.5187    1.7770   24.6033 O   0  0  0  0  0  0  0  0  0  0  0  0
    2.7688    1.0697   25.5812 C   0  0  0  0  0  0  0  0  0  0  0  0
    5.5933    2.3243   23.6293 C   0  0  0  0  0  0  0  0  0  0  0  0
    4.9261    3.2455   22.8515 O   0  0  0  0  0  0  0  0  0  0  0  0
    4.7251    2.7143   21.5433 C   0  0  0  0  0  0  0  0  0  0  0  0
  1  2  1  0
  2  3  1  0
  3  4  2  0
  4  5  1  0
  6  5  1  6
  6  7  1  0
  7  8  1  0
  8  9  2  0
  8 10  1  0
 10 11  1  0
 11 12  2  0
 12 13  1  0
 13 14  2  0
 13 15  1  0
 15 16  1  0
 16 17  1  0
 16 18  1  0
  5 19  2  0
 19 20  1  0
 20 21  1  0
 21 22  1  0
 20 23  2  0
 23 24  1  0
 24 25  1  0
 23  3  1  0
 12  6  1  0
 16 11  1  0
M  END
