
     RDKit          3D

 25 27  0  0  0  0  0  0  0  0999 V2000
    5.6979   -4.5172   21.8211 C   0  0  0  0  0  0  0  0  0  0  0  0
    5.5910   -3.5396   20.7935 O   0  0  0  0  0  0  0  0  0  0  0  0
    6.5294   -2.5385   20.7887 C   0  0  0  0  0  0  0  0  0  0  0  0
    7.7447   -2.5858   21.4789 C   0  0  0  0  0  0  0  0  0  0  0  0
    8.6401   -1.5123   21.4235 C   0  0  0  0  0  0  0  0  0  0  0  0
    9.8883   -1.5081   22.0854 N   0  0  0  0  0  0  0  0  0  0  0  0
   10.1983   -0.8955   23.2804 C   0  0  0  0  0  0  0  0  0  0  0  0
    9.4097   -0.2261   23.9436 O   0  0  0  0  0  0  0  0  0  0  0  0
   11.5314   -1.0714   23.6832 N   0  0  0  0  0  0  0  0  0  0  0  0
   12.5006   -1.8440   22.8894 C   0  0  0  0  0  0  0  0  0  0  0  0
   13.9406   -1.7129   23.4162 C   0  0  1  0  0  0  0  0  0  0  0  0
   14.3683   -0.2379   23.4925 C   0  0  0  0  0  0  0  0  0  0  0  0
   13.9029    0.2382   24.8788 C   0  0  0  0  0  0  0  0  0  0  0  0
   13.2350   -0.9912   25.5185 C   0  0  1  0  0  0  0  0  0  0  0  0
   11.7500   -1.0765   25.1333 C   0  0  0  0  0  0  0  0  0  0  0  0
   14.0142   -2.1438   24.8818 C   0  0  1  0  0  0  0  0  0  0  0  0
   13.4598   -3.4351   25.0723 O   0  0  0  0  0  0  0  0  0  0  0  0
   12.9301   -3.6264   26.3778 C   0  0  0  0  0  0  0  0  0  0  0  0
    8.3225   -0.3864   20.6488 C   0  0  0  0  0  0  0  0  0  0  0  0
    7.1162   -0.3196   19.9461 C   0  0  0  0  0  0  0  0  0  0  0  0
    6.7245    0.7365   19.1637 O   0  0  0  0  0  0  0  0  0  0  0  0
    7.1222    0.7206   17.8001 C   0  0  0  0  0  0  0  0  0  0  0  0
    6.2356   -1.4108   20.0061 C   0  0  0  0  0  0  0  0  0  0  0  0
    5.0280   -1.3363   19.3469 O   0  0  0  0  0  0  0  0  0  0  0  0
    4.3076   -0.1874   19.7891 C   0  0  0  0  0  0  0  0  0  0  0  0
  1  2  1  0
  2  3  1  0
  3  4  2  0
  4  5  1  0
  5  6  1  0
  6  7  1  0
  7  8  2  0
  7  9  1  0
  9 10  1  0
 11 10  1  1
 11 12  1  0
 12 13  1  0
 14 13  1  6
 14 15  1  0
 14 16  1  0
 16 17  1  6
 17 18  1  0
  5 19  2  0
 19 20  1  0
 20 21  1  0
 21 22  1  0
 20 23  2  0
 23 24  1  0
 24 25  1  0
 23  3  1  0
 15  9  1  0
 16 11  1  0
M  END
