
     RDKit          3D

 30 32  0  0  0  0  0  0  0  0999 V2000
    8.1807   -4.9680   25.0582 C   0  0  0  0  0  0  0  0  0  0  0  0
    8.0955   -4.1285   26.3179 C   0  0  0  0  0  0  0  0  0  0  0  0
    7.3679   -2.9009   26.0779 N   0  0  0  0  0  0  0  0  0  0  0  0
    6.6216   -2.2766   27.0584 C   0  0  0  0  0  0  0  0  0  0  0  0
    6.4859   -2.7500   28.1835 O   0  0  0  0  0  0  0  0  0  0  0  0
    5.9223   -0.9743   26.5910 C   0  0  1  0  0  0  0  0  0  0  0  0
    4.3929   -1.0760   26.7037 C   0  0  0  0  0  0  0  0  0  0  0  0
    4.1429   -0.3248   27.9775 C   0  0  0  0  0  0  0  0  0  0  0  0
    2.9542   -0.2732   28.6913 C   0  0  0  0  0  0  0  0  0  0  0  0
    2.9060    0.5250   29.8319 C   0  0  0  0  0  0  0  0  0  0  0  0
    4.0340    1.2544   30.2350 C   0  0  0  0  0  0  0  0  0  0  0  0
    5.2237    1.2019   29.4984 C   0  0  0  0  0  0  0  0  0  0  0  0
    5.2677    0.4128   28.3615 C   0  0  0  0  0  0  0  0  0  0  0  0
    6.3177    0.1715   27.4541 N   0  0  0  0  0  0  0  0  0  0  0  0
    7.5202    0.8050   27.2633 C   0  0  0  0  0  0  0  0  0  0  0  0
    7.8837    1.7485   27.9693 O   0  0  0  0  0  0  0  0  0  0  0  0
    8.4264    0.3064   26.2095 C   0  0  0  0  0  0  0  0  0  0  0  0
    9.4993   -0.4510   26.4832 C   0  0  0  0  0  0  0  0  0  0  0  0
   10.4251   -0.9675   25.4719 C   0  0  0  0  0  0  0  0  0  0  0  0
   11.7647   -1.2322   25.8030 C   0  0  0  0  0  0  0  0  0  0  0  0
   12.6499   -1.7388   24.8448 C   0  0  0  0  0  0  0  0  0  0  0  0
   13.9728   -2.0194   25.0694 O   0  0  0  0  0  0  0  0  0  0  0  0
   14.5460   -1.5317   26.2745 C   0  0  0  0  0  0  0  0  0  0  0  0
   12.1774   -1.9801   23.5461 C   0  0  0  0  0  0  0  0  0  0  0  0
   13.0276   -2.5161   22.6066 O   0  0  0  0  0  0  0  0  0  0  0  0
   12.9445   -1.7624   21.3946 C   0  0  0  0  0  0  0  0  0  0  0  0
   10.8334   -1.7464   23.2272 C   0  0  0  0  0  0  0  0  0  0  0  0
   10.3387   -1.9694   21.9678 O   0  0  0  0  0  0  0  0  0  0  0  0
    8.9464   -1.6506   21.9256 C   0  0  0  0  0  0  0  0  0  0  0  0
    9.9658   -1.2144   24.1780 C   0  0  0  0  0  0  0  0  0  0  0  0
  1  2  1  0
  2  3  1  0
  3  4  1  0
  4  5  2  0
  6  4  1  1
  6  7  1  0
  7  8  1  0
  8  9  2  0
  9 10  1  0
 10 11  2  0
 11 12  1  0
 12 13  2  0
 13 14  1  0
 14 15  1  0
 15 16  2  0
 15 17  1  0
 17 18  2  0
 18 19  1  0
 19 20  2  0
 20 21  1  0
 21 22  1  0
 22 23  1  0
 21 24  2  0
 24 25  1  0
 25 26  1  0
 24 27  1  0
 27 28  1  0
 28 29  1  0
 27 30  2  0
 14  6  1  0
 30 19  1  0
 13  8  1  0
M  END
