
     RDKit          3D

 34 36  0  0  0  0  0  0  0  0999 V2000
   -1.9897   -0.2210   29.3829 C   0  0  0  0  0  0  0  0  0  0  0  0
   -0.6950   -0.6417   29.7948 O   0  0  0  0  0  0  0  0  0  0  0  0
    0.3513   -0.3875   28.9477 C   0  0  0  0  0  0  0  0  0  0  0  0
    1.1740   -1.3595   28.3804 C   0  0  0  0  0  0  0  0  0  0  0  0
    2.2265   -0.9873   27.5361 C   0  0  0  0  0  0  0  0  0  0  0  0
    2.4713    0.3608   27.2248 C   0  0  0  0  0  0  0  0  0  0  0  0
    3.6326    0.6436   26.3209 C   0  0  0  0  0  0  0  0  0  0  0  0
    3.6894    0.1214   25.2133 O   0  0  0  0  0  0  0  0  0  0  0  0
    4.6200    1.4669   26.7999 N   0  0  0  0  0  0  0  0  0  0  0  0
    5.8105    1.8333   26.0370 C   0  0  2  0  0  0  0  0  0  0  0  0
    6.5442    3.0691   26.6236 C   0  0  0  0  0  0  0  0  0  0  0  0
    7.6970    3.2979   25.9363 F   0  0  0  0  0  0  0  0  0  0  0  0
    5.8079    4.2004   26.5168 F   0  0  0  0  0  0  0  0  0  0  0  0
    6.8886    2.9149   27.9221 F   0  0  0  0  0  0  0  0  0  0  0  0
    5.5613    1.9588   24.6255 N   0  0  0  0  0  0  0  0  0  0  0  0
    6.4264    1.1905   23.8885 C   0  0  0  0  0  0  0  0  0  0  0  0
    6.5000    1.2478   22.6721 O   0  0  0  0  0  0  0  0  0  0  0  0
    7.1698    0.4118   24.7330 N   0  0  0  0  0  0  0  0  0  0  0  0
    8.1755   -0.5325   24.2462 C   0  0  2  0  0  0  0  0  0  0  0  0
    8.0134   -1.9601   24.7912 C   0  0  0  0  0  0  0  0  0  0  0  0
    8.9873   -2.9204   24.1117 C   0  0  0  0  0  0  0  0  0  0  0  0
   10.4331   -2.4380   24.2107 C   0  0  0  0  0  0  0  0  0  0  0  0
   10.5971   -0.9994   23.6931 C   0  0  2  0  0  0  0  0  0  0  0  0
   12.0633   -0.5692   23.7661 C   0  0  0  0  0  0  0  0  0  0  0  0
    9.6313   -0.0100   24.4028 C   0  0  2  0  0  0  0  0  0  0  0  0
   10.0216    0.2646   25.8623 C   0  0  0  0  0  0  0  0  0  0  0  0
    6.8727    0.7231   26.0375 C   0  0  0  0  0  0  0  0  0  0  0  0
    7.3562    0.2233   27.0460 O   0  0  0  0  0  0  0  0  0  0  0  0
    1.6224    1.3415   27.7612 C   0  0  0  0  0  0  0  0  0  0  0  0
    1.8431    2.6679   27.4661 O   0  0  0  0  0  0  0  0  0  0  0  0
    1.5090    2.9651   26.1043 C   0  0  0  0  0  0  0  0  0  0  0  0
    0.5995    0.9644   28.6522 C   0  0  0  0  0  0  0  0  0  0  0  0
   -0.2034    1.9345   29.2090 O   0  0  0  0  0  0  0  0  0  0  0  0
    0.6032    2.9143   29.8651 C   0  0  0  0  0  0  0  0  0  0  0  0
  1  2  1  0
  2  3  1  0
  3  4  2  0
  4  5  1  0
  5  6  2  0
  6  7  1  0
  7  8  2  0
  7  9  1  0
 10  9  1  1
 10 11  1  0
 11 12  1  0
 11 13  1  0
 11 14  1  0
 10 15  1  0
 15 16  1  0
 16 17  2  0
 16 18  1  0
 19 18  1  1
 19 20  1  0
 20 21  1  0
 21 22  1  0
 22 23  1  0
 23 24  1  1
 23 25  1  0
 25 26  1  1
 18 27  1  0
 27 28  2  0
  6 29  1  0
 29 30  1  0
 30 31  1  0
 29 32  2  0
 32 33  1  0
 33 34  1  0
 32  3  1  0
 27 10  1  0
 25 19  1  0
M  END
