
     RDKit          3D

 30 34  0  0  0  0  0  0  0  0999 V2000
    9.1646   10.6461   28.0325 C   0  0  0  0  0  0  0  0  0  0  0  0
    9.3104    9.3652   27.2660 C   0  0  0  0  0  0  0  0  0  0  0  0
    8.2088    8.7984   26.6167 C   0  0  0  0  0  0  0  0  0  0  0  0
    8.3362    7.5884   25.9304 C   0  0  0  0  0  0  0  0  0  0  0  0
    9.5661    6.9155   25.8887 C   0  0  0  0  0  0  0  0  0  0  0  0
    9.7064    5.6136   25.1272 C   0  0  0  0  0  0  0  0  0  0  0  0
    9.4180    4.4707   25.9700 N   0  0  0  0  0  0  0  0  0  0  0  0
    8.8178    4.6038   27.1802 C   0  0  0  0  0  0  0  0  0  0  0  0
    8.5315    5.5220   28.0557 N   0  0  0  0  0  0  0  0  0  0  0  0
    7.8571    4.8739   29.0747 N   0  0  0  0  0  0  0  0  0  0  0  0
    7.7307    3.5844   28.7732 C   0  0  0  0  0  0  0  0  0  0  0  0
    7.0021    2.6303   29.5877 C   0  0  0  0  0  0  0  0  0  0  0  0
    7.6626    1.9143   30.5939 C   0  0  0  0  0  0  0  0  0  0  0  0
    6.9579    1.0112   31.3920 C   0  0  0  0  0  0  0  0  0  0  0  0
    5.5882    0.8332   31.2015 C   0  0  0  0  0  0  0  0  0  0  0  0
    4.9180    1.5653   30.2222 C   0  0  0  0  0  0  0  0  0  0  0  0
    5.6206    2.4683   29.4219 C   0  0  0  0  0  0  0  0  0  0  0  0
    8.3583    3.3604   27.5719 N   0  0  0  0  0  0  0  0  0  0  0  0
    8.6852    2.4172   26.5895 C   0  0  0  0  0  0  0  0  0  0  0  0
    9.3059    3.1181   25.6171 C   0  0  0  0  0  0  0  0  0  0  0  0
    9.7927    2.4538   24.4003 C   0  0  0  0  0  0  0  0  0  0  0  0
   10.4765    3.0546   23.5761 O   0  0  0  0  0  0  0  0  0  0  0  0
    9.4306    1.1167   24.3013 N   0  0  0  0  0  0  0  0  0  0  0  0
    9.8380    0.4024   23.1063 C   0  0  0  0  0  0  0  0  0  0  0  0
    8.8602    0.3579   25.3294 C   0  0  0  0  0  0  0  0  0  0  0  0
    8.7013   -0.8592   25.2188 O   0  0  0  0  0  0  0  0  0  0  0  0
    8.4947    1.0571   26.4916 N   0  0  0  0  0  0  0  0  0  0  0  0
    7.9307    0.2825   27.5803 C   0  0  0  0  0  0  0  0  0  0  0  0
   10.6633    7.4797   26.5530 C   0  0  0  0  0  0  0  0  0  0  0  0
   10.5350    8.6898   27.2395 C   0  0  0  0  0  0  0  0  0  0  0  0
  1  2  1  0
  2  3  2  0
  3  4  1  0
  4  5  2  0
  5  6  1  0
  6  7  1  0
  7  8  1  0
  8  9  2  0
  9 10  1  0
 10 11  2  0
 11 12  1  0
 12 13  2  0
 13 14  1  0
 14 15  2  0
 15 16  1  0
 16 17  2  0
 11 18  1  0
 18 19  1  0
 19 20  2  0
 20 21  1  0
 21 22  2  0
 21 23  1  0
 23 24  1  0
 23 25  1  0
 25 26  2  0
 25 27  1  0
 27 28  1  0
  5 29  1  0
 29 30  2  0
 30  2  1  0
 20  7  1  0
 18  8  1  0
 27 19  1  0
 17 12  1  0
M  END
