
     RDKit          3D

  9  9  0  0  0  0  0  0  0  0999 V2000
   14.1442   -1.7358   22.7848 N   0  0  0  0  0  0  0  0  0  0  0  0
   12.8964   -1.9188   23.4060 C   0  0  0  0  0  0  0  0  0  0  0  0
   11.7343   -1.7552   22.6402 C   0  0  0  0  0  0  0  0  0  0  0  0
   10.4782   -2.0423   23.1811 C   0  0  0  0  0  0  0  0  0  0  0  0
    8.7690   -1.7532   22.0321 I   0  0  0  0  0  0  0  0  0  0  0  0
   10.3617   -2.5319   24.4799 C   0  0  0  0  0  0  0  0  0  0  0  0
   11.5120   -2.7511   25.2377 C   0  0  0  0  0  0  0  0  0  0  0  0
   12.7708   -2.4646   24.6964 C   0  0  0  0  0  0  0  0  0  0  0  0
   14.4538   -2.8438   25.8932 I   0  0  0  0  0  0  0  0  0  0  0  0
  1  2  1  0
  2  3  2  0
  3  4  1  0
  4  5  1  0
  4  6  2  0
  6  7  1  0
  7  8  2  0
  8  9  1  0
  8  2  1  0
M  END
