
     RDKit          3D

 34 37  0  0  0  0  0  0  0  0999 V2000
    8.4110    0.6053   22.0393 C   0  0  0  0  0  0  0  0  0  0  0  0
    7.0384    0.4372   22.3549 O   0  0  0  0  0  0  0  0  0  0  0  0
    6.3100    1.5615   22.6438 C   0  0  0  0  0  0  0  0  0  0  0  0
    5.2841    2.0746   21.8491 C   0  0  0  0  0  0  0  0  0  0  0  0
    4.6061    3.2374   22.2357 C   0  0  0  0  0  0  0  0  0  0  0  0
    4.9380    3.9067   23.4247 C   0  0  0  0  0  0  0  0  0  0  0  0
    4.1696    5.1436   23.7452 C   0  0  0  0  0  0  0  0  0  0  0  0
    3.1153    5.0724   24.3699 O   0  0  0  0  0  0  0  0  0  0  0  0
    4.6924    6.3351   23.2959 N   0  0  0  0  0  0  0  0  0  0  0  0
    4.0289    7.5999   23.5503 C   0  0  0  0  0  0  0  0  0  0  0  0
    3.9933    7.9348   25.0447 C   0  0  2  0  0  0  0  0  0  0  0  0
    5.3137    7.5771   25.7392 C   0  0  0  0  0  0  0  0  0  0  0  0
    4.7791    7.0411   27.0100 C   0  0  0  0  0  0  0  0  0  0  0  0
    3.4164    6.8050   26.8962 C   0  0  0  0  0  0  0  0  0  0  0  0
    2.6618    6.2493   27.9273 C   0  0  0  0  0  0  0  0  0  0  0  0
    1.2193    6.0038   27.8239 C   0  0  0  0  0  0  0  0  0  0  0  0
    0.4564    6.8522   28.5735 N   0  0  0  0  0  0  0  0  0  0  0  0
   -0.8859    6.6823   28.5248 C   0  0  0  0  0  0  0  0  0  0  0  0
   -1.7357    7.6079   29.3355 C   0  0  0  0  0  0  0  0  0  0  0  0
   -1.4570    5.6918   27.7430 C   0  0  0  0  0  0  0  0  0  0  0  0
   -0.7227    4.8270   27.0093 N   0  0  0  0  0  0  0  0  0  0  0  0
    0.6300    4.9816   27.0661 C   0  0  0  0  0  0  0  0  0  0  0  0
    1.4269    3.9915   26.2721 C   0  0  0  0  0  0  0  0  0  0  0  0
    3.3543    5.9620   29.1216 C   0  0  0  0  0  0  0  0  0  0  0  0
    4.7347    6.1958   29.2450 C   0  0  0  0  0  0  0  0  0  0  0  0
    5.4443    6.7323   28.1762 C   0  0  0  0  0  0  0  0  0  0  0  0
    6.7617    6.9427   28.2833 F   0  0  0  0  0  0  0  0  0  0  0  0
    2.9186    7.1692   25.6691 O   0  0  0  0  0  0  0  0  0  0  0  0
    5.9467    3.3813   24.2429 C   0  0  0  0  0  0  0  0  0  0  0  0
    6.2906    4.0151   25.4129 O   0  0  0  0  0  0  0  0  0  0  0  0
    7.3601    4.9388   25.1837 C   0  0  0  0  0  0  0  0  0  0  0  0
    6.6509    2.2369   23.8307 C   0  0  0  0  0  0  0  0  0  0  0  0
    7.6586    1.7398   24.6265 O   0  0  0  0  0  0  0  0  0  0  0  0
    7.1363    0.7332   25.4926 C   0  0  0  0  0  0  0  0  0  0  0  0
  1  2  1  0
  2  3  1  0
  3  4  2  0
  4  5  1  0
  5  6  2  0
  6  7  1  0
  7  8  2  0
  7  9  1  0
  9 10  1  0
 11 10  1  6
 11 12  1  0
 12 13  1  0
 13 14  2  0
 14 15  1  0
 15 16  1  0
 16 17  2  0
 17 18  1  0
 18 19  1  0
 18 20  2  0
 20 21  1  0
 21 22  2  0
 22 23  1  0
 15 24  2  0
 24 25  1  0
 25 26  2  0
 26 27  1  0
 14 28  1  0
  6 29  1  0
 29 30  1  0
 30 31  1  0
 29 32  2  0
 32 33  1  0
 33 34  1  0
 32  3  1  0
 28 11  1  0
 26 13  1  0
 22 16  1  0
M  END
