
     RDKit          3D

 33 36  0  0  0  0  0  0  0  0999 V2000
   -0.8939   14.1263   20.1313 C   0  0  0  0  0  0  0  0  0  0  0  0
   -1.7894   13.6242   21.1155 O   0  0  0  0  0  0  0  0  0  0  0  0
   -1.5156   12.2557   21.4214 C   0  0  0  0  0  0  0  0  0  0  0  0
   -0.0881   12.1694   21.9489 C   0  0  0  0  0  0  0  0  0  0  0  0
    0.1374   12.9999   23.2087 C   0  0  0  0  0  0  0  0  0  0  0  0
    1.5207   13.0075   23.6604 N   0  0  0  0  0  0  0  0  0  0  0  0
    1.9179   13.4300   24.9213 C   0  0  0  0  0  0  0  0  0  0  0  0
    1.2073   13.7333   25.8611 O   0  0  0  0  0  0  0  0  0  0  0  0
    3.3892   13.4982   24.8986 C   0  0  0  0  0  0  0  0  0  0  0  0
    4.1784   13.9070   25.9353 O   0  0  0  0  0  0  0  0  0  0  0  0
    5.5318   13.9465   25.6787 C   0  0  0  0  0  0  0  0  0  0  0  0
    6.3665   14.3129   26.7314 C   0  0  0  0  0  0  0  0  0  0  0  0
    7.7481   14.3788   26.5310 C   0  0  0  0  0  0  0  0  0  0  0  0
    8.3064   14.0712   25.2811 C   0  0  0  0  0  0  0  0  0  0  0  0
    9.7879   14.1781   25.0649 C   0  0  0  0  0  0  0  0  0  0  0  0
    7.4608   13.7186   24.2206 C   0  0  0  0  0  0  0  0  0  0  0  0
    6.0793   13.6504   24.4233 C   0  0  0  0  0  0  0  0  0  0  0  0
    5.1768   13.2769   23.3100 C   0  0  0  0  0  0  0  0  0  0  0  0
    5.5735   13.0968   22.1679 O   0  0  0  0  0  0  0  0  0  0  0  0
    3.7668   13.1681   23.6640 C   0  0  0  0  0  0  0  0  0  0  0  0
    2.6510   12.7931   22.7636 C   0  0  1  0  0  0  0  0  0  0  0  0
    2.7413   11.3668   22.2492 C   0  0  0  0  0  0  0  0  0  0  0  0
    2.2395   10.3201   23.0453 C   0  0  0  0  0  0  0  0  0  0  0  0
    2.2788    8.9953   22.6036 C   0  0  0  0  0  0  0  0  0  0  0  0
    1.8172    7.9181   23.3151 O   0  0  0  0  0  0  0  0  0  0  0  0
    2.7796    6.9957   23.8068 C   0  0  0  0  0  0  0  0  0  0  0  0
    2.8246    8.7193   21.3394 C   0  0  0  0  0  0  0  0  0  0  0  0
    2.9173    7.4114   20.9139 O   0  0  0  0  0  0  0  0  0  0  0  0
    2.0794    7.2140   19.7765 C   0  0  0  0  0  0  0  0  0  0  0  0
    3.3401    9.7423   20.5272 C   0  0  0  0  0  0  0  0  0  0  0  0
    3.8560    9.3577   19.3165 O   0  0  0  0  0  0  0  0  0  0  0  0
    4.3825   10.3755   18.4764 C   0  0  0  0  0  0  0  0  0  0  0  0
    3.2759   11.0615   20.9822 C   0  0  0  0  0  0  0  0  0  0  0  0
  1  2  1  0
  2  3  1  0
  3  4  1  0
  4  5  1  0
  5  6  1  0
  6  7  1  0
  7  8  2  0
  7  9  1  0
  9 10  1  0
 10 11  1  0
 11 12  2  0
 12 13  1  0
 13 14  2  0
 14 15  1  0
 14 16  1  0
 16 17  2  0
 17 18  1  0
 18 19  2  0
 18 20  1  0
 20 21  1  0
 21 22  1  1
 22 23  2  0
 23 24  1  0
 24 25  1  0
 25 26  1  0
 24 27  2  0
 27 28  1  0
 28 29  1  0
 27 30  1  0
 30 31  1  0
 31 32  1  0
 30 33  2  0
 21  6  1  0
 33 22  1  0
 20  9  2  0
 17 11  1  0
M  END
