
     RDKit          3D

 34 37  0  0  0  0  0  0  0  0999 V2000
    9.9817    9.4278   28.6731 C   0  0  0  0  0  0  0  0  0  0  0  0
    9.0250    8.7770   29.5006 O   0  0  0  0  0  0  0  0  0  0  0  0
    8.1732    7.9014   28.8777 C   0  0  0  0  0  0  0  0  0  0  0  0
    8.5588    6.6610   28.3649 C   0  0  0  0  0  0  0  0  0  0  0  0
    7.6286    5.8149   27.7379 C   0  0  0  0  0  0  0  0  0  0  0  0
    8.0114    4.4436   27.2194 C   0  0  0  0  0  0  0  0  0  0  0  0
    7.5349    4.1426   25.8605 N   0  0  0  0  0  0  0  0  0  0  0  0
    6.5896    3.1197   25.6077 C   0  0  0  0  0  0  0  0  0  0  0  0
    6.2319    2.9056   24.4465 O   0  0  0  0  0  0  0  0  0  0  0  0
    6.0560    2.3260   26.7070 C   0  0  0  0  0  0  0  0  0  0  0  0
    4.9286    2.7365   27.3610 O   0  0  0  0  0  0  0  0  0  0  0  0
    4.6789    1.8544   28.3595 C   0  0  0  0  0  0  0  0  0  0  0  0
    3.6038    1.9269   29.2428 C   0  0  0  0  0  0  0  0  0  0  0  0
    3.5190    0.9255   30.2219 C   0  0  0  0  0  0  0  0  0  0  0  0
    2.3694    0.9175   31.1885 C   0  0  0  0  0  0  0  0  0  0  0  0
    4.4776   -0.0983   30.2660 C   0  0  0  0  0  0  0  0  0  0  0  0
    5.5494   -0.1395   29.3597 C   0  0  0  0  0  0  0  0  0  0  0  0
    5.6497    0.8654   28.3805 C   0  0  0  0  0  0  0  0  0  0  0  0
    6.5515    1.1760   27.3155 C   0  0  0  0  0  0  0  0  0  0  0  0
    7.7767    0.4301   26.9299 C   0  0  0  0  0  0  0  0  0  0  0  0
    7.6952    5.1588   24.8014 C   0  0  2  0  0  0  0  0  0  0  0  0
    8.5976    4.7698   23.6190 C   0  0  0  0  0  0  0  0  0  0  0  0
    8.6674    6.0095   22.7386 C   0  0  0  0  0  0  0  0  0  0  0  0
    8.7925    7.3720   23.8833 S   0  0  0  0  0  0  0  0  0  0  0  0
    7.8106    8.3713   23.5211 O   0  0  0  0  0  0  0  0  0  0  0  0
   10.1943    7.6927   24.0600 O   0  0  0  0  0  0  0  0  0  0  0  0
    8.2336    6.4932   25.3315 C   0  0  0  0  0  0  0  0  0  0  0  0
    6.2874    6.2303   27.6438 C   0  0  0  0  0  0  0  0  0  0  0  0
    5.8832    7.4751   28.1345 C   0  0  0  0  0  0  0  0  0  0  0  0
    4.6044    7.9647   28.0696 O   0  0  0  0  0  0  0  0  0  0  0  0
    3.8995    7.8014   26.8470 C   0  0  0  0  0  0  0  0  0  0  0  0
    6.8402    8.3126   28.7299 C   0  0  0  0  0  0  0  0  0  0  0  0
    6.4415    9.5200   29.2607 O   0  0  0  0  0  0  0  0  0  0  0  0
    6.5097    9.4669   30.6842 C   0  0  0  0  0  0  0  0  0  0  0  0
  1  2  1  0
  2  3  1  0
  3  4  2  0
  4  5  1  0
  5  6  1  0
  6  7  1  0
  7  8  1  0
  8  9  2  0
  8 10  1  0
 10 11  1  0
 11 12  1  0
 12 13  2  0
 13 14  1  0
 14 15  1  0
 14 16  2  0
 16 17  1  0
 17 18  2  0
 18 19  1  0
 19 20  1  0
 21  7  1  1
 21 22  1  0
 22 23  1  0
 23 24  1  0
 24 25  2  0
 24 26  2  0
 24 27  1  0
  5 28  2  0
 28 29  1  0
 29 30  1  0
 30 31  1  0
 29 32  2  0
 32 33  1  0
 33 34  1  0
 32  3  1  0
 19 10  2  0
 27 21  1  0
 18 12  1  0
M  END
