
     RDKit          3D

 25 27  0  0  0  0  0  0  0  0999 V2000
    7.3276    0.2600   30.4262 C   0  0  0  0  0  0  0  0  0  0  0  0
    7.2835   -0.5060   29.2212 O   0  0  0  0  0  0  0  0  0  0  0  0
    6.5743    0.1666   28.2600 C   0  0  0  0  0  0  0  0  0  0  0  0
    6.0406    1.4156   28.5879 C   0  0  0  0  0  0  0  0  0  0  0  0
    5.2651    2.1102   27.6581 C   0  0  0  0  0  0  0  0  0  0  0  0
    5.0200    1.5564   26.4006 C   0  0  0  0  0  0  0  0  0  0  0  0
    5.5540    0.3083   26.0692 C   0  0  0  0  0  0  0  0  0  0  0  0
    5.2322   -0.2020   24.8376 O   0  0  0  0  0  0  0  0  0  0  0  0
    4.3772    0.6971   24.1254 C   0  0  0  0  0  0  0  0  0  0  0  0
    6.3012   -0.4080   27.0137 C   0  0  0  0  0  0  0  0  0  0  0  0
    6.8370   -1.7376   26.6810 C   0  0  0  0  0  0  0  0  0  0  0  0
    7.9317   -1.7670   26.1207 O   0  0  0  0  0  0  0  0  0  0  0  0
    6.0797   -2.8775   26.9761 N   0  0  0  0  0  0  0  0  0  0  0  0
    4.7589   -2.8360   27.6086 C   0  0  0  0  0  0  0  0  0  0  0  0
    4.8558   -2.9635   29.1268 C   0  0  0  0  0  0  0  0  0  0  0  0
    5.0795   -4.3918   29.6156 C   0  0  0  0  0  0  0  0  0  0  0  0
    6.3227   -5.0778   29.0510 C   0  0  0  0  0  0  0  0  0  0  0  0
    6.2264   -5.3525   27.5498 C   0  0  0  0  0  0  0  0  0  0  0  0
    6.6960   -4.1772   26.6752 C   0  0  1  0  0  0  0  0  0  0  0  0
    6.4650   -4.4936   25.2290 C   0  0  0  0  0  0  0  0  0  0  0  0
    7.1067   -5.2651   24.2878 C   0  0  0  0  0  0  0  0  0  0  0  0
    6.3297   -5.1128   23.1187 C   0  0  0  0  0  0  0  0  0  0  0  0
    6.5446   -5.7345   21.7943 C   0  0  0  0  0  0  0  0  0  0  0  0
    5.2994   -4.2836   23.3229 N   0  0  0  0  0  0  0  0  0  0  0  0
    5.3794   -3.9066   24.6519 O   0  0  0  0  0  0  0  0  0  0  0  0
  1  2  1  0
  2  3  1  0
  3  4  2  0
  4  5  1  0
  5  6  2  0
  6  7  1  0
  7  8  1  0
  8  9  1  0
  7 10  2  0
 10 11  1  0
 11 12  2  0
 11 13  1  0
 13 14  1  0
 14 15  1  0
 15 16  1  0
 16 17  1  0
 17 18  1  0
 18 19  1  0
 19 20  1  6
 20 21  2  0
 21 22  1  0
 22 23  1  0
 22 24  2  0
 24 25  1  0
 10  3  1  0
 19 13  1  0
 25 20  1  0
M  END
