
     RDKit          3D

 30 32  0  0  0  0  0  0  0  0999 V2000
    5.8573   -1.6073   31.3892 C   0  0  0  0  0  0  0  0  0  0  0  0
    5.5802   -0.3778   30.7317 O   0  0  0  0  0  0  0  0  0  0  0  0
    6.2643   -0.1328   29.5685 C   0  0  0  0  0  0  0  0  0  0  0  0
    6.8757    1.0837   29.2535 C   0  0  0  0  0  0  0  0  0  0  0  0
    7.5696    1.2484   28.0445 C   0  0  0  0  0  0  0  0  0  0  0  0
    8.1560    2.5161   27.8135 N   0  0  0  0  0  0  0  0  0  0  0  0
    7.5554    3.6333   27.2579 C   0  0  0  0  0  0  0  0  0  0  0  0
    6.4062    3.7036   26.8366 O   0  0  0  0  0  0  0  0  0  0  0  0
    8.4191    4.8497   27.1311 C   0  0  0  0  0  0  0  0  0  0  0  0
    8.9954    5.1196   25.8810 C   0  0  0  0  0  0  0  0  0  0  0  0
    9.8111    6.2386   25.7010 C   0  0  0  0  0  0  0  0  0  0  0  0
   10.0487    7.1053   26.7683 C   0  0  0  0  0  0  0  0  0  0  0  0
   11.0825    8.4650   26.4993 Cl  0  0  0  0  0  0  0  0  0  0  0  0
    9.4496    6.8712   28.0175 C   0  0  0  0  0  0  0  0  0  0  0  0
    9.7666    7.7265   29.1380 N   0  0  0  0  0  0  0  0  0  0  0  0
    9.5285    9.1764   28.9502 C   0  0  0  0  0  0  0  0  0  0  0  0
    9.2995    9.8361   30.3106 C   0  0  0  0  0  0  0  0  0  0  0  0
   10.4884    9.6716   31.2601 C   0  0  0  0  0  0  0  0  0  0  0  0
   10.8125    8.2087   31.5342 C   0  0  0  0  0  0  0  0  0  0  0  0
   11.1645    7.3319   30.0219 S   0  0  0  0  0  0  0  0  0  0  0  0
   12.2936    7.9610   29.3657 O   0  0  0  0  0  0  0  0  0  0  0  0
   11.1572    5.9119   30.2961 O   0  0  0  0  0  0  0  0  0  0  0  0
    8.6508    5.7310   28.1969 C   0  0  0  0  0  0  0  0  0  0  0  0
    7.6404    0.1801   27.1440 C   0  0  0  0  0  0  0  0  0  0  0  0
    7.0434   -1.0498   27.4427 C   0  0  0  0  0  0  0  0  0  0  0  0
    7.0640   -2.1503   26.6231 O   0  0  0  0  0  0  0  0  0  0  0  0
    8.3367   -2.6593   26.2454 C   0  0  0  0  0  0  0  0  0  0  0  0
    6.3780   -1.2028   28.6692 C   0  0  0  0  0  0  0  0  0  0  0  0
    5.7516   -2.3945   28.9612 O   0  0  0  0  0  0  0  0  0  0  0  0
    4.6382   -2.5796   28.0891 C   0  0  0  0  0  0  0  0  0  0  0  0
  1  2  1  0
  2  3  1  0
  3  4  2  0
  4  5  1  0
  5  6  1  0
  6  7  1  0
  7  8  2  0
  7  9  1  0
  9 10  2  0
 10 11  1  0
 11 12  2  0
 12 13  1  0
 12 14  1  0
 14 15  1  0
 15 16  1  0
 16 17  1  0
 17 18  1  0
 18 19  1  0
 19 20  1  0
 20 21  2  0
 20 22  2  0
 14 23  2  0
  5 24  2  0
 24 25  1  0
 25 26  1  0
 26 27  1  0
 25 28  2  0
 28 29  1  0
 29 30  1  0
 28  3  1  0
 23  9  1  0
 20 15  1  0
M  END
