
     RDKit          3D

 31 34  0  0  0  0  0  0  0  0999 V2000
    7.6798    7.5413   27.5498 C   0  0  0  0  0  0  0  0  0  0  0  0
    6.7617    8.6227   27.6471 O   0  0  0  0  0  0  0  0  0  0  0  0
    5.4269    8.3209   27.5580 C   0  0  0  0  0  0  0  0  0  0  0  0
    4.8366    7.6413   26.4864 C   0  0  0  0  0  0  0  0  0  0  0  0
    3.4577    7.3602   26.4768 C   0  0  0  0  0  0  0  0  0  0  0  0
    2.7795    6.6600   25.3624 C   0  0  0  0  0  0  0  0  0  0  0  0
    3.1692    5.4908   24.8869 N   0  0  0  0  0  0  0  0  0  0  0  0
    2.3125    5.0428   23.8862 C   0  0  0  0  0  0  0  0  0  0  0  0
    2.5803    3.7015   23.2869 C   0  0  0  0  0  0  0  0  0  0  0  0
    3.3586    2.7813   24.2104 C   0  0  0  0  0  0  0  0  0  0  0  0
    3.1468    2.7932   25.4265 O   0  0  0  0  0  0  0  0  0  0  0  0
    4.2876    1.9337   23.6477 N   0  0  0  0  0  0  0  0  0  0  0  0
    4.6346    1.7982   22.2336 C   0  0  0  0  0  0  0  0  0  0  0  0
    5.8244    0.8170   22.2428 C   0  0  2  0  0  0  0  0  0  0  0  0
    5.9253    0.0242   20.9395 C   0  0  0  0  0  0  0  0  0  0  0  0
    5.4574   -0.0784   23.4326 C   0  0  0  0  0  0  0  0  0  0  0  0
    5.0604    0.9889   24.4514 C   0  0  1  0  0  0  0  0  0  0  0  0
    6.3326    1.6471   25.0142 C   0  0  0  0  0  0  0  0  0  0  0  0
    7.2570    2.2734   23.9290 C   0  0  0  0  0  0  0  0  0  0  0  0
    8.7178    2.2185   24.4358 C   0  0  0  0  0  0  0  0  0  0  0  0
    6.9349    3.7737   23.7423 C   0  0  0  0  0  0  0  0  0  0  0  0
    7.1751    1.5186   22.5598 C   0  0  0  0  0  0  0  0  0  0  0  0
    1.2706    5.9053   23.6029 C   0  0  0  0  0  0  0  0  0  0  0  0
    1.3656    7.2908   24.6003 S   0  0  0  0  0  0  0  0  0  0  0  0
    2.6823    7.7657   27.5817 C   0  0  0  0  0  0  0  0  0  0  0  0
    3.2508    8.4437   28.6641 C   0  0  0  0  0  0  0  0  0  0  0  0
    2.5630    8.8865   29.7639 O   0  0  0  0  0  0  0  0  0  0  0  0
    1.7574    7.9439   30.4580 C   0  0  0  0  0  0  0  0  0  0  0  0
    4.6291    8.7018   28.6485 C   0  0  0  0  0  0  0  0  0  0  0  0
    5.1981    9.4157   29.6821 O   0  0  0  0  0  0  0  0  0  0  0  0
    5.8069   10.6030   29.1759 C   0  0  0  0  0  0  0  0  0  0  0  0
  1  2  1  0
  2  3  1  0
  3  4  2  0
  4  5  1  0
  5  6  1  0
  6  7  2  0
  7  8  1  0
  8  9  1  0
  9 10  1  0
 10 11  2  0
 10 12  1  0
 12 13  1  0
 13 14  1  0
 14 15  1  6
 14 16  1  0
 16 17  1  0
 17 18  1  6
 18 19  1  0
 19 20  1  0
 19 21  1  0
 19 22  1  0
  8 23  2  0
 23 24  1  0
  5 25  2  0
 25 26  1  0
 26 27  1  0
 27 28  1  0
 26 29  2  0
 29 30  1  0
 30 31  1  0
 29  3  1  0
 24  6  1  0
 17 12  1  0
 22 14  1  0
M  END
