
     RDKit          3D

 35 38  0  0  0  0  0  0  0  0999 V2000
    5.8489   -4.9664   28.3198 C   0  0  0  0  0  0  0  0  0  0  0  0
    4.7468   -5.1220   27.4358 O   0  0  0  0  0  0  0  0  0  0  0  0
    4.8683   -4.5218   26.2093 C   0  0  0  0  0  0  0  0  0  0  0  0
    5.3296   -3.2179   26.0180 C   0  0  0  0  0  0  0  0  0  0  0  0
    5.4468   -2.6745   24.7252 C   0  0  0  0  0  0  0  0  0  0  0  0
    5.9769   -1.2566   24.4791 C   0  0  1  0  0  0  0  0  0  0  0  0
    5.0289   -0.1695   25.0940 C   0  0  1  0  0  0  0  0  0  0  0  0
    4.7862   -0.3097   26.6115 C   0  0  0  0  0  0  0  0  0  0  0  0
    3.8725    0.7750   27.1911 C   0  0  0  0  0  0  0  0  0  0  0  0
    3.5188    1.8744   26.1998 C   0  0  0  0  0  0  0  0  0  0  0  0
    4.7640    2.3791   25.4887 C   0  0  0  0  0  0  0  0  0  0  0  0
    5.5419    1.2563   24.7578 C   0  0  2  0  0  0  0  0  0  0  0  0
    5.3400    1.5042   23.3588 O   0  0  0  0  0  0  0  0  0  0  0  0
    7.0349    1.3934   25.0914 C   0  0  0  0  0  0  0  0  0  0  0  0
    7.8824    0.2749   24.4990 C   0  0  0  0  0  0  0  0  0  0  0  0
    7.3954   -1.0622   24.8740 N   0  0  0  0  0  0  0  0  0  0  0  0
    8.3233   -2.1001   24.3427 C   0  0  0  0  0  0  0  0  0  0  0  0
    9.6728   -2.2585   25.0800 C   0  0  0  0  0  0  0  0  0  0  0  0
    9.7595   -2.6674   26.2352 O   0  0  0  0  0  0  0  0  0  0  0  0
   10.7412   -1.9214   24.2531 N   0  0  0  0  0  0  0  0  0  0  0  0
   12.1246   -1.9350   24.5553 C   0  0  0  0  0  0  0  0  0  0  0  0
   12.6790   -2.7983   25.5101 C   0  0  0  0  0  0  0  0  0  0  0  0
   14.0585   -2.8202   25.7680 C   0  0  0  0  0  0  0  0  0  0  0  0
   14.6190   -3.7355   26.8172 C   0  0  0  0  0  0  0  0  0  0  0  0
   14.8925   -1.9417   25.0775 C   0  0  0  0  0  0  0  0  0  0  0  0
   14.3585   -1.0728   24.1277 C   0  0  0  0  0  0  0  0  0  0  0  0
   12.9800   -1.0569   23.8529 C   0  0  0  0  0  0  0  0  0  0  0  0
   12.4770   -0.0899   22.8144 C   0  0  0  0  0  0  0  0  0  0  0  0
    5.0726   -3.4645   23.6202 C   0  0  0  0  0  0  0  0  0  0  0  0
    4.6171   -4.7736   23.7901 C   0  0  0  0  0  0  0  0  0  0  0  0
    4.2528   -5.6128   22.7677 O   0  0  0  0  0  0  0  0  0  0  0  0
    5.2903   -6.3436   22.1266 C   0  0  0  0  0  0  0  0  0  0  0  0
    4.5477   -5.3022   25.0879 C   0  0  0  0  0  0  0  0  0  0  0  0
    4.0810   -6.5852   25.2685 O   0  0  0  0  0  0  0  0  0  0  0  0
    2.8029   -6.5472   25.9038 C   0  0  0  0  0  0  0  0  0  0  0  0
  1  2  1  0
  2  3  1  0
  3  4  2  0
  4  5  1  0
  6  5  1  1
  6  7  1  0
  7  8  1  1
  8  9  1  0
  9 10  1  0
 10 11  1  0
 11 12  1  0
 12 13  1  6
 12 14  1  0
 14 15  1  0
 15 16  1  0
 16 17  1  0
 17 18  1  0
 18 19  2  0
 18 20  1  0
 20 21  1  0
 21 22  2  0
 22 23  1  0
 23 24  1  0
 23 25  2  0
 25 26  1  0
 26 27  2  0
 27 28  1  0
  5 29  2  0
 29 30  1  0
 30 31  1  0
 31 32  1  0
 30 33  2  0
 33 34  1  0
 34 35  1  0
 33  3  1  0
 16  6  1  0
 27 21  1  0
 12  7  1  0
M  END
