
     RDKit          3D

 34 36  0  0  0  0  0  0  0  0999 V2000
    7.1479   -5.2760   25.9591 O   0  0  0  0  0  0  0  0  0  0  0  0
    8.3475   -5.0700   25.1928 C   0  0  1  0  0  0  0  0  0  0  0  0
    9.5066   -5.7971   25.8949 C   0  0  0  0  0  0  0  0  0  0  0  0
   10.8241   -5.4219   25.3543 N   0  0  0  0  0  0  0  0  0  0  0  0
   11.4295   -4.3328   26.1310 C   0  0  0  0  0  0  0  0  0  0  0  0
   12.0747   -3.2588   25.2858 C   0  0  0  0  0  0  0  0  0  0  0  0
   13.3147   -2.7186   25.6517 C   0  0  0  0  0  0  0  0  0  0  0  0
   13.9011   -1.7013   24.8914 C   0  0  0  0  0  0  0  0  0  0  0  0
   13.2631   -1.2035   23.7442 C   0  0  0  0  0  0  0  0  0  0  0  0
   13.8779   -0.0449   22.9930 C   0  0  0  0  0  0  0  0  0  0  0  0
   12.9792    1.1158   22.9010 N   0  0  0  0  0  0  0  0  0  0  0  0
   13.2789    2.1119   23.9578 C   0  0  0  0  0  0  0  0  0  0  0  0
   13.3167    3.5546   23.4032 C   0  0  2  0  0  0  0  0  0  0  0  0
   14.2061    4.3386   24.2082 O   0  0  0  0  0  0  0  0  0  0  0  0
   11.9255    4.2034   23.3979 C   0  0  0  0  0  0  0  0  0  0  0  0
   11.8983    5.4315   22.6730 O   0  0  0  0  0  0  0  0  0  0  0  0
   10.6585    6.1295   22.8106 C   0  0  0  0  0  0  0  0  0  0  0  0
   10.6773    6.9511   24.0736 C   0  0  0  0  0  0  0  0  0  0  0  0
   11.8859    7.4683   24.5633 C   0  0  0  0  0  0  0  0  0  0  0  0
   11.9050    8.2597   25.7139 C   0  0  0  0  0  0  0  0  0  0  0  0
   10.7167    8.5493   26.3820 C   0  0  0  0  0  0  0  0  0  0  0  0
    9.5074    8.0495   25.9008 C   0  0  0  0  0  0  0  0  0  0  0  0
    9.4871    7.2589   24.7512 C   0  0  0  0  0  0  0  0  0  0  0  0
   12.0233   -1.7434   23.3779 C   0  0  0  0  0  0  0  0  0  0  0  0
   11.4416   -2.7683   24.1350 C   0  0  0  0  0  0  0  0  0  0  0  0
    8.1215   -5.5879   23.7633 C   0  0  0  0  0  0  0  0  0  0  0  0
    8.1370   -4.4918   22.8382 O   0  0  0  0  0  0  0  0  0  0  0  0
    6.8359   -3.9881   22.5459 C   0  0  0  0  0  0  0  0  0  0  0  0
    6.9795   -2.7749   21.6651 C   0  0  0  0  0  0  0  0  0  0  0  0
    8.0588   -1.8928   21.8248 C   0  0  0  0  0  0  0  0  0  0  0  0
    8.1961   -0.7793   20.9922 C   0  0  0  0  0  0  0  0  0  0  0  0
    7.2537   -0.5317   19.9957 C   0  0  0  0  0  0  0  0  0  0  0  0
    6.1713   -1.3951   19.8327 C   0  0  0  0  0  0  0  0  0  0  0  0
    6.0345   -2.5118   20.6638 C   0  0  0  0  0  0  0  0  0  0  0  0
  2  1  1  1
  2  3  1  0
  3  4  1  0
  4  5  1  0
  5  6  1  0
  6  7  2  0
  7  8  1  0
  8  9  2  0
  9 10  1  0
 10 11  1  0
 11 12  1  0
 12 13  1  0
 13 14  1  1
 13 15  1  0
 15 16  1  0
 16 17  1  0
 17 18  1  0
 18 19  2  0
 19 20  1  0
 20 21  2  0
 21 22  1  0
 22 23  2  0
  9 24  1  0
 24 25  2  0
  2 26  1  0
 26 27  1  0
 27 28  1  0
 28 29  1  0
 29 30  2  0
 30 31  1  0
 31 32  2  0
 32 33  1  0
 33 34  2  0
 25  6  1  0
 34 29  1  0
 23 18  1  0
M  END
