
     RDKit          3D

 34 36  0  0  0  0  0  0  0  0999 V2000
    7.8980   -4.0527   26.2100 O   0  0  0  0  0  0  0  0  0  0  0  0
    8.3104   -5.3366   25.7134 C   0  0  2  0  0  0  0  0  0  0  0  0
    9.7336   -5.6254   26.2335 C   0  0  0  0  0  0  0  0  0  0  0  0
   10.8218   -5.0333   25.4453 N   0  0  0  0  0  0  0  0  0  0  0  0
   11.7662   -4.2911   26.2827 C   0  0  0  0  0  0  0  0  0  0  0  0
   12.2290   -3.0397   25.5736 C   0  0  0  0  0  0  0  0  0  0  0  0
   13.5895   -2.8370   25.3047 C   0  0  0  0  0  0  0  0  0  0  0  0
   14.0235   -1.6673   24.6761 C   0  0  0  0  0  0  0  0  0  0  0  0
   13.1063   -0.6750   24.3062 C   0  0  0  0  0  0  0  0  0  0  0  0
   13.5742    0.5877   23.6250 C   0  0  0  0  0  0  0  0  0  0  0  0
   12.8150    1.7850   24.0065 N   0  0  0  0  0  0  0  0  0  0  0  0
   13.4747    3.0594   23.6579 C   0  0  0  0  0  0  0  0  0  0  0  0
   12.6304    3.9221   22.6977 C   0  0  2  0  0  0  0  0  0  0  0  0
   13.3657    4.0613   21.4697 O   0  0  0  0  0  0  0  0  0  0  0  0
   12.3407    5.3034   23.3058 C   0  0  0  0  0  0  0  0  0  0  0  0
   11.3490    5.2507   24.3402 O   0  0  0  0  0  0  0  0  0  0  0  0
   10.4512    6.3607   24.3605 C   0  0  0  0  0  0  0  0  0  0  0  0
    9.2736    6.1535   23.4407 C   0  0  0  0  0  0  0  0  0  0  0  0
    8.5908    7.2536   22.9035 C   0  0  0  0  0  0  0  0  0  0  0  0
    7.4959    7.0640   22.0593 C   0  0  0  0  0  0  0  0  0  0  0  0
    7.0753    5.7735   21.7424 C   0  0  0  0  0  0  0  0  0  0  0  0
    7.7500    4.6723   22.2670 C   0  0  0  0  0  0  0  0  0  0  0  0
    8.8449    4.8603   23.1120 C   0  0  0  0  0  0  0  0  0  0  0  0
   11.7462   -0.8761   24.5788 C   0  0  0  0  0  0  0  0  0  0  0  0
   11.3131   -2.0433   25.2135 C   0  0  0  0  0  0  0  0  0  0  0  0
    8.2247   -5.3172   24.1817 C   0  0  0  0  0  0  0  0  0  0  0  0
    6.8465   -5.1617   23.8043 O   0  0  0  0  0  0  0  0  0  0  0  0
    6.6453   -5.3382   22.4002 C   0  0  0  0  0  0  0  0  0  0  0  0
    6.3133   -4.0397   21.7071 C   0  0  0  0  0  0  0  0  0  0  0  0
    6.4698   -2.8137   22.3704 C   0  0  0  0  0  0  0  0  0  0  0  0
    6.1850   -1.6124   21.7194 C   0  0  0  0  0  0  0  0  0  0  0  0
    5.7504   -1.6228   20.3956 C   0  0  0  0  0  0  0  0  0  0  0  0
    5.6020   -2.8336   19.7217 C   0  0  0  0  0  0  0  0  0  0  0  0
    5.8855   -4.0365   20.3720 C   0  0  0  0  0  0  0  0  0  0  0  0
  2  1  1  1
  2  3  1  0
  3  4  1  0
  4  5  1  0
  5  6  1  0
  6  7  2  0
  7  8  1  0
  8  9  2  0
  9 10  1  0
 10 11  1  0
 11 12  1  0
 12 13  1  0
 13 14  1  6
 13 15  1  0
 15 16  1  0
 16 17  1  0
 17 18  1  0
 18 19  2  0
 19 20  1  0
 20 21  2  0
 21 22  1  0
 22 23  2  0
  9 24  1  0
 24 25  2  0
  2 26  1  0
 26 27  1  0
 27 28  1  0
 28 29  1  0
 29 30  2  0
 30 31  1  0
 31 32  2  0
 32 33  1  0
 33 34  2  0
 25  6  1  0
 34 29  1  0
 23 18  1  0
M  END
