
     RDKit          3D

 34 37  0  0  0  0  0  0  0  0999 V2000
   13.3349   -3.1001   25.9054 O   0  0  0  0  0  0  0  0  0  0  0  0
   12.4503   -2.6262   25.1902 C   0  0  0  0  0  0  0  0  0  0  0  0
   11.0906   -3.2990   25.0536 C   0  0  0  0  0  0  0  0  0  0  0  0
   10.9829   -4.6305   25.8021 C   0  0  0  0  0  0  0  0  0  0  0  0
    9.6628   -5.3551   25.5073 C   0  0  0  0  0  0  0  0  0  0  0  0
    8.4575   -4.6612   26.1467 C   0  0  0  0  0  0  0  0  0  0  0  0
    7.1225   -5.0862   25.5474 C   0  0  0  0  0  0  0  0  0  0  0  0
    6.4179   -5.9431   26.0817 O   0  0  0  0  0  0  0  0  0  0  0  0
    6.7386   -4.4537   24.3756 N   0  0  0  0  0  0  0  0  0  0  0  0
    5.4625   -4.8285   23.7611 C   0  0  0  0  0  0  0  0  0  0  0  0
    5.4190   -4.4822   22.2629 C   0  0  0  0  0  0  0  0  0  0  0  0
    5.6242   -3.0419   21.9891 N   0  0  0  0  0  0  0  0  0  0  0  0
    6.0210   -2.8023   20.5931 C   0  0  0  0  0  0  0  0  0  0  0  0
    5.7550   -1.3865   20.1216 C   0  0  0  0  0  0  0  0  0  0  0  0
    5.2679   -0.4194   21.0164 C   0  0  0  0  0  0  0  0  0  0  0  0
    5.0382    0.8904   20.5922 C   0  0  0  0  0  0  0  0  0  0  0  0
    5.3008    1.2509   19.2709 C   0  0  0  0  0  0  0  0  0  0  0  0
    5.7918    0.3024   18.3736 C   0  0  0  0  0  0  0  0  0  0  0  0
    6.0201   -1.0104   18.7955 C   0  0  0  0  0  0  0  0  0  0  0  0
    6.5564   -2.4162   22.9451 C   0  0  0  0  0  0  0  0  0  0  0  0
    7.4845   -3.3860   23.7026 C   0  0  0  0  0  0  0  0  0  0  0  0
   12.6427   -1.4519   24.4610 N   0  0  0  0  0  0  0  0  0  0  0  0
   13.9486   -0.8007   24.5887 C   0  0  0  0  0  0  0  0  0  0  0  0
   14.2534    0.1752   23.4382 C   0  0  0  0  0  0  0  0  0  0  0  0
   13.1784    1.1439   23.1426 N   0  0  0  0  0  0  0  0  0  0  0  0
   13.0643    2.1586   24.2042 C   0  0  0  0  0  0  0  0  0  0  0  0
   12.4476    3.4588   23.7286 C   0  0  0  0  0  0  0  0  0  0  0  0
   11.1440    3.8134   24.1099 C   0  0  0  0  0  0  0  0  0  0  0  0
   10.5702    5.0045   23.6623 C   0  0  0  0  0  0  0  0  0  0  0  0
   11.2897    5.8519   22.8226 C   0  0  0  0  0  0  0  0  0  0  0  0
   12.5814    5.5057   22.4264 C   0  0  0  0  0  0  0  0  0  0  0  0
   13.1583    4.3165   22.8756 C   0  0  0  0  0  0  0  0  0  0  0  0
   11.9219    0.3979   22.9228 C   0  0  0  0  0  0  0  0  0  0  0  0
   11.5345   -0.5816   24.0478 C   0  0  0  0  0  0  0  0  0  0  0  0
  1  2  2  0
  2  3  1  0
  3  4  1  0
  4  5  1  0
  5  6  1  0
  6  7  1  0
  7  8  2  0
  7  9  1  0
  9 10  1  0
 10 11  1  0
 11 12  1  0
 12 13  1  0
 13 14  1  0
 14 15  2  0
 15 16  1  0
 16 17  2  0
 17 18  1  0
 18 19  2  0
 12 20  1  0
 20 21  1  0
  2 22  1  0
 22 23  1  0
 23 24  1  0
 24 25  1  0
 25 26  1  0
 26 27  1  0
 27 28  2  0
 28 29  1  0
 29 30  2  0
 30 31  1  0
 31 32  2  0
 25 33  1  0
 33 34  1  0
 21  9  1  0
 34 22  1  0
 19 14  1  0
 32 27  1  0
M  END
