
     RDKit          3D

 27 29  0  0  0  0  0  0  0  0999 V2000
    2.8251   -5.4126   25.7783 C   0  0  0  0  0  0  0  0  0  0  0  0
    1.7020   -5.4087   26.6500 O   0  0  0  0  0  0  0  0  0  0  0  0
    1.4640   -4.2552   27.3522 C   0  0  0  0  0  0  0  0  0  0  0  0
    2.1011   -3.0369   27.1062 C   0  0  0  0  0  0  0  0  0  0  0  0
    1.7758   -1.9091   27.8706 C   0  0  0  0  0  0  0  0  0  0  0  0
    2.4261   -0.6012   27.6210 C   0  0  0  0  0  0  0  0  0  0  0  0
    2.3425    0.4028   28.4354 N   0  0  0  0  0  0  0  0  0  0  0  0
    3.1059    1.4502   27.8694 O   0  0  0  0  0  0  0  0  0  0  0  0
    3.2741    1.1727   26.4807 C   0  0  1  0  0  0  0  0  0  0  0  0
    4.5652    1.7702   25.8948 C   0  0  0  0  0  0  0  0  0  0  0  0
    5.1589    1.1847   24.9828 O   0  0  0  0  0  0  0  0  0  0  0  0
    4.9848    3.0334   26.3418 N   0  0  0  0  0  0  0  0  0  0  0  0
    6.2296    3.5717   25.7544 C   0  0  2  0  0  0  0  0  0  0  0  0
    7.4857    3.0416   26.4512 C   0  0  0  0  0  0  0  0  0  0  0  0
    6.2190    5.1036   25.6630 C   0  0  0  0  0  0  0  0  0  0  0  0
    5.7915    5.7719   26.9618 C   0  0  0  0  0  0  0  0  0  0  0  0
    4.4352    5.2329   27.3972 C   0  0  0  0  0  0  0  0  0  0  0  0
    4.4211    3.7035   27.5352 C   0  0  2  0  0  0  0  0  0  0  0  0
    5.0974    3.2529   28.8361 C   0  0  0  0  0  0  0  0  0  0  0  0
    3.2494   -0.3406   26.4080 C   0  0  0  0  0  0  0  0  0  0  0  0
    0.8205   -1.9987   28.8941 C   0  0  0  0  0  0  0  0  0  0  0  0
    0.1722   -3.2077   29.1508 C   0  0  0  0  0  0  0  0  0  0  0  0
   -0.7768   -3.3945   30.1223 O   0  0  0  0  0  0  0  0  0  0  0  0
   -0.6474   -2.6318   31.3145 C   0  0  0  0  0  0  0  0  0  0  0  0
    0.4832   -4.3241   28.3565 C   0  0  0  0  0  0  0  0  0  0  0  0
   -0.1178   -5.5339   28.6269 O   0  0  0  0  0  0  0  0  0  0  0  0
    0.8768   -6.5118   28.9268 C   0  0  0  0  0  0  0  0  0  0  0  0
  1  2  1  0
  2  3  1  0
  3  4  2  0
  4  5  1  0
  5  6  1  0
  6  7  2  0
  7  8  1  0
  8  9  1  0
  9 10  1  1
 10 11  2  0
 10 12  1  0
 12 13  1  0
 13 14  1  1
 13 15  1  0
 15 16  1  0
 16 17  1  0
 17 18  1  0
 18 19  1  1
  9 20  1  0
  5 21  2  0
 21 22  1  0
 22 23  1  0
 23 24  1  0
 22 25  2  0
 25 26  1  0
 26 27  1  0
 25  3  1  0
 20  6  1  0
 18 12  1  0
M  END
