
     RDKit          3D

 30 33  0  0  0  0  0  0  0  0999 V2000
    6.2983    9.5441   21.7988 C   0  0  0  0  0  0  0  0  0  0  0  0
    5.5681   10.0853   22.8914 O   0  0  0  0  0  0  0  0  0  0  0  0
    6.2808   10.6458   23.9206 C   0  0  0  0  0  0  0  0  0  0  0  0
    7.0496    9.9273   24.8431 C   0  0  0  0  0  0  0  0  0  0  0  0
    7.7499   10.5816   25.8724 C   0  0  0  0  0  0  0  0  0  0  0  0
    8.6281    9.8503   26.8837 C   0  0  1  0  0  0  0  0  0  0  0  0
    7.9028    9.2403   28.0882 C   0  0  0  0  0  0  0  0  0  0  0  0
    7.2626    7.8784   27.8199 C   0  0  0  0  0  0  0  0  0  0  0  0
    6.1871    7.6137   28.3614 O   0  0  0  0  0  0  0  0  0  0  0  0
    7.9942    6.9917   26.9890 N   0  0  0  0  0  0  0  0  0  0  0  0
    7.5402    5.6309   26.8845 C   0  0  0  0  0  0  0  0  0  0  0  0
    6.7968    5.1984   25.7759 C   0  0  0  0  0  0  0  0  0  0  0  0
    6.3680    3.8700   25.6710 C   0  0  0  0  0  0  0  0  0  0  0  0
    6.6733    2.9609   26.6792 C   0  0  0  0  0  0  0  0  0  0  0  0
    6.1478    1.3292   26.5496 Cl  0  0  0  0  0  0  0  0  0  0  0  0
    7.3941    3.3719   27.7953 C   0  0  0  0  0  0  0  0  0  0  0  0
    7.8197    4.7008   27.8984 C   0  0  0  0  0  0  0  0  0  0  0  0
    9.0985    7.4702   26.2947 C   0  0  0  0  0  0  0  0  0  0  0  0
    9.4001    8.7628   26.2453 C   0  0  0  0  0  0  0  0  0  0  0  0
   10.6883    8.8870   25.5771 C   0  0  0  0  0  0  0  0  0  0  0  0
   11.2869    9.9296   25.3898 O   0  0  0  0  0  0  0  0  0  0  0  0
   11.1273    7.6451   25.2359 O   0  0  0  0  0  0  0  0  0  0  0  0
   10.1490    6.6712   25.6239 C   0  0  0  0  0  0  0  0  0  0  0  0
    7.6716   11.9873   25.9499 C   0  0  0  0  0  0  0  0  0  0  0  0
    6.9210   12.7267   25.0324 C   0  0  0  0  0  0  0  0  0  0  0  0
    6.8059   14.0927   25.0412 O   0  0  0  0  0  0  0  0  0  0  0  0
    6.3594   14.6965   26.2489 C   0  0  0  0  0  0  0  0  0  0  0  0
    6.2098   12.0432   24.0355 C   0  0  0  0  0  0  0  0  0  0  0  0
    5.4952   12.7614   23.1014 O   0  0  0  0  0  0  0  0  0  0  0  0
    4.1083   12.7366   23.4335 C   0  0  0  0  0  0  0  0  0  0  0  0
  1  2  1  0
  2  3  1  0
  3  4  2  0
  4  5  1  0
  6  5  1  6
  6  7  1  0
  7  8  1  0
  8  9  2  0
  8 10  1  0
 10 11  1  0
 11 12  2  0
 12 13  1  0
 13 14  2  0
 14 15  1  0
 14 16  1  0
 16 17  2  0
 10 18  1  0
 18 19  2  0
 19 20  1  0
 20 21  2  0
 20 22  1  0
 22 23  1  0
  5 24  2  0
 24 25  1  0
 25 26  1  0
 26 27  1  0
 25 28  2  0
 28 29  1  0
 29 30  1  0
 28  3  1  0
 19  6  1  0
 17 11  1  0
 23 18  1  0
M  END
