
     RDKit          3D

 33 36  0  0  0  0  0  0  0  0999 V2000
    6.5237    6.6887   21.8334 C   0  0  0  0  0  0  0  0  0  0  0  0
    7.1961    5.4670   22.1065 O   0  0  0  0  0  0  0  0  0  0  0  0
    6.5257    4.3014   21.8386 C   0  0  0  0  0  0  0  0  0  0  0  0
    5.2334    4.2260   21.3142 C   0  0  0  0  0  0  0  0  0  0  0  0
    4.6243    2.9815   21.0780 C   0  0  0  0  0  0  0  0  0  0  0  0
    3.2696    2.9257   20.5344 C   0  0  0  0  0  0  0  0  0  0  0  0
    2.9851    2.9242   19.2212 N   0  0  0  0  0  0  0  0  0  0  0  0
    1.5960    2.8558   19.1786 O   0  0  0  0  0  0  0  0  0  0  0  0
    1.1709    2.8217   20.4720 C   0  0  0  0  0  0  0  0  0  0  0  0
   -0.2964    2.7533   20.6948 C   0  0  1  0  0  0  0  0  0  0  0  0
   -0.7755    1.2961   20.7607 C   0  0  0  0  0  0  0  0  0  0  0  0
   -2.2652    1.2271   21.0918 C   0  0  0  0  0  0  0  0  0  0  0  0
   -2.5871    2.0020   22.3675 C   0  0  0  0  0  0  0  0  0  0  0  0
   -2.1507    3.4186   22.2010 N   0  0  0  0  0  0  0  0  0  0  0  0
   -2.6865    4.4813   23.4392 S   0  0  0  0  0  0  0  0  0  0  0  0
   -2.0272    4.1062   24.6710 O   0  0  0  0  0  0  0  0  0  0  0  0
   -4.1290    4.5520   23.3446 O   0  0  0  0  0  0  0  0  0  0  0  0
   -2.0061    6.0399   22.9397 C   0  0  0  0  0  0  0  0  0  0  0  0
   -0.7298    6.3993   23.3918 C   0  0  0  0  0  0  0  0  0  0  0  0
   -0.1837    7.6257   23.0103 C   0  0  0  0  0  0  0  0  0  0  0  0
   -0.9152    8.4830   22.1878 C   0  0  0  0  0  0  0  0  0  0  0  0
   -2.1855    8.1106   21.7538 C   0  0  0  0  0  0  0  0  0  0  0  0
   -2.8801    8.9415   20.9666 F   0  0  0  0  0  0  0  0  0  0  0  0
   -2.7452    6.8944   22.1216 C   0  0  0  0  0  0  0  0  0  0  0  0
   -0.6697    3.5007   21.9803 C   0  0  0  0  0  0  0  0  0  0  0  0
    2.1522    2.8664   21.3429 N   0  0  0  0  0  0  0  0  0  0  0  0
    5.3283    1.8011   21.3734 C   0  0  0  0  0  0  0  0  0  0  0  0
    6.6225    1.8535   21.8958 C   0  0  0  0  0  0  0  0  0  0  0  0
    7.3849    0.7594   22.2143 O   0  0  0  0  0  0  0  0  0  0  0  0
    7.6816   -0.1603   21.1723 C   0  0  0  0  0  0  0  0  0  0  0  0
    7.2172    3.1087   22.1091 C   0  0  0  0  0  0  0  0  0  0  0  0
    8.4760    3.1691   22.6669 O   0  0  0  0  0  0  0  0  0  0  0  0
    8.3720    3.2567   24.0871 C   0  0  0  0  0  0  0  0  0  0  0  0
  1  2  1  0
  2  3  1  0
  3  4  2  0
  4  5  1  0
  5  6  1  0
  6  7  2  0
  7  8  1  0
  8  9  1  0
 10  9  1  1
 10 11  1  0
 11 12  1  0
 12 13  1  0
 13 14  1  0
 14 15  1  0
 15 16  2  0
 15 17  2  0
 15 18  1  0
 18 19  2  0
 19 20  1  0
 20 21  2  0
 21 22  1  0
 22 23  1  0
 22 24  2  0
 14 25  1  0
  9 26  2  0
  5 27  2  0
 27 28  1  0
 28 29  1  0
 29 30  1  0
 28 31  2  0
 31 32  1  0
 32 33  1  0
 31  3  1  0
 26  6  1  0
 25 10  1  0
 24 18  1  0
M  END
