
     RDKit          3D

 31 33  0  0  0  0  0  0  0  0999 V2000
    0.6493    3.9916   26.3231 C   0  0  0  0  0  0  0  0  0  0  0  0
    2.0362    4.0033   26.0119 O   0  0  0  0  0  0  0  0  0  0  0  0
    2.7580    2.8727   26.2933 C   0  0  0  0  0  0  0  0  0  0  0  0
    2.6318    2.1159   27.4570 C   0  0  0  0  0  0  0  0  0  0  0  0
    3.4074    0.9623   27.6243 C   0  0  0  0  0  0  0  0  0  0  0  0
    3.2561    0.1841   28.8762 C   0  0  0  0  0  0  0  0  0  0  0  0
    4.2745   -0.1855   29.4545 O   0  0  0  0  0  0  0  0  0  0  0  0
    1.9670   -0.1075   29.3282 N   0  0  0  0  0  0  0  0  0  0  0  0
    1.7452   -0.8761   30.5637 C   0  0  0  0  0  0  0  0  0  0  0  0
    1.7321   -2.3941   30.2653 C   0  0  0  0  0  0  0  0  0  0  0  0
    0.7343   -2.7083   29.2109 N   0  0  0  0  0  0  0  0  0  0  0  0
    0.4023   -4.0609   28.9789 C   0  0  0  0  0  0  0  0  0  0  0  0
    1.3302   -5.0508   28.5926 C   0  0  0  0  0  0  0  0  0  0  0  0
    2.6182   -4.7378   28.3778 F   0  0  0  0  0  0  0  0  0  0  0  0
    0.9525   -6.3799   28.3938 C   0  0  0  0  0  0  0  0  0  0  0  0
    1.8693   -7.2818   28.0152 F   0  0  0  0  0  0  0  0  0  0  0  0
   -0.3614   -6.7703   28.5821 C   0  0  0  0  0  0  0  0  0  0  0  0
   -0.7193   -8.0473   28.3899 F   0  0  0  0  0  0  0  0  0  0  0  0
   -1.3013   -5.8353   28.9742 C   0  0  0  0  0  0  0  0  0  0  0  0
   -2.5743   -6.2069   29.1713 F   0  0  0  0  0  0  0  0  0  0  0  0
   -0.9260   -4.5073   29.1729 C   0  0  0  0  0  0  0  0  0  0  0  0
   -1.8671   -3.6463   29.5956 F   0  0  0  0  0  0  0  0  0  0  0  0
    0.9309   -1.9058   27.9661 C   0  0  0  0  0  0  0  0  0  0  0  0
    0.9603   -0.4009   28.3037 C   0  0  0  0  0  0  0  0  0  0  0  0
    4.3445    0.5715   26.6582 C   0  0  0  0  0  0  0  0  0  0  0  0
    4.4840    1.3172   25.4891 C   0  0  0  0  0  0  0  0  0  0  0  0
    5.3527    1.0228   24.4706 O   0  0  0  0  0  0  0  0  0  0  0  0
    5.5867   -0.3484   24.1796 C   0  0  0  0  0  0  0  0  0  0  0  0
    3.6930    2.4699   25.3208 C   0  0  0  0  0  0  0  0  0  0  0  0
    3.7898    3.1797   24.1430 O   0  0  0  0  0  0  0  0  0  0  0  0
    4.9021    4.0711   24.2044 C   0  0  0  0  0  0  0  0  0  0  0  0
  1  2  1  0
  2  3  1  0
  3  4  2  0
  4  5  1  0
  5  6  1  0
  6  7  2  0
  6  8  1  0
  8  9  1  0
  9 10  1  0
 10 11  1  0
 11 12  1  0
 12 13  2  0
 13 14  1  0
 13 15  1  0
 15 16  1  0
 15 17  2  0
 17 18  1  0
 17 19  1  0
 19 20  1  0
 19 21  2  0
 21 22  1  0
 11 23  1  0
 23 24  1  0
  5 25  2  0
 25 26  1  0
 26 27  1  0
 27 28  1  0
 26 29  2  0
 29 30  1  0
 30 31  1  0
 29  3  1  0
 24  8  1  0
 21 12  1  0
M  END
