
     RDKit          3D

 30 33  0  0  0  0  0  0  0  0999 V2000
    6.4994    7.7716   21.9719 C   0  0  0  0  0  0  0  0  0  0  0  0
    5.9791    6.4625   21.7830 O   0  0  0  0  0  0  0  0  0  0  0  0
    6.8011    5.4021   22.0682 C   0  0  0  0  0  0  0  0  0  0  0  0
    8.0076    5.4945   22.7712 C   0  0  0  0  0  0  0  0  0  0  0  0
    8.7942    4.3552   23.0185 C   0  0  0  0  0  0  0  0  0  0  0  0
   10.1011    4.3948   23.8052 C   0  0  1  0  0  0  0  0  0  0  0  0
   10.0071    4.0097   25.2854 C   0  0  0  0  0  0  0  0  0  0  0  0
   10.0211    2.5049   25.5515 C   0  0  0  0  0  0  0  0  0  0  0  0
    9.3250    2.0602   26.4668 O   0  0  0  0  0  0  0  0  0  0  0  0
   10.8870    1.7294   24.7381 N   0  0  0  0  0  0  0  0  0  0  0  0
   11.1016    0.3520   25.0970 C   0  0  0  0  0  0  0  0  0  0  0  0
   10.0144   -0.5063   25.3363 C   0  0  0  0  0  0  0  0  0  0  0  0
   10.2123   -1.8429   25.7013 C   0  0  0  0  0  0  0  0  0  0  0  0
   11.5036   -2.3442   25.8236 C   0  0  0  0  0  0  0  0  0  0  0  0
   12.5808   -1.5071   25.5698 C   0  0  0  0  0  0  0  0  0  0  0  0
   13.8265   -1.9905   25.6638 F   0  0  0  0  0  0  0  0  0  0  0  0
   12.3939   -0.1749   25.2081 C   0  0  0  0  0  0  0  0  0  0  0  0
   11.4727    2.3159   23.6224 C   0  0  0  0  0  0  0  0  0  0  0  0
   11.1295    3.5257   23.1944 C   0  0  0  0  0  0  0  0  0  0  0  0
   12.0437    3.8869   22.1194 C   0  0  0  0  0  0  0  0  0  0  0  0
   12.0431    4.9459   21.5205 O   0  0  0  0  0  0  0  0  0  0  0  0
   12.9211    2.8648   21.9279 O   0  0  0  0  0  0  0  0  0  0  0  0
   12.6034    1.7909   22.8233 C   0  0  0  0  0  0  0  0  0  0  0  0
    8.3336    3.1066   22.5522 C   0  0  0  0  0  0  0  0  0  0  0  0
    7.1263    2.9886   21.8590 C   0  0  0  0  0  0  0  0  0  0  0  0
    6.6140    1.8092   21.3833 O   0  0  0  0  0  0  0  0  0  0  0  0
    6.5537    1.6540   19.9709 C   0  0  0  0  0  0  0  0  0  0  0  0
    6.3797    4.1472   21.6007 C   0  0  0  0  0  0  0  0  0  0  0  0
    5.1698    4.0412   20.9498 O   0  0  0  0  0  0  0  0  0  0  0  0
    4.2665    3.2668   21.7365 C   0  0  0  0  0  0  0  0  0  0  0  0
  1  2  1  0
  2  3  1  0
  3  4  2  0
  4  5  1  0
  6  5  1  6
  6  7  1  0
  7  8  1  0
  8  9  2  0
  8 10  1  0
 10 11  1  0
 11 12  2  0
 12 13  1  0
 13 14  2  0
 14 15  1  0
 15 16  1  0
 15 17  2  0
 10 18  1  0
 18 19  2  0
 19 20  1  0
 20 21  2  0
 20 22  1  0
 22 23  1  0
  5 24  2  0
 24 25  1  0
 25 26  1  0
 26 27  1  0
 25 28  2  0
 28 29  1  0
 29 30  1  0
 28  3  1  0
 19  6  1  0
 17 11  1  0
 23 18  1  0
M  END
