
     RDKit          3D

 30 33  0  0  0  0  0  0  0  0999 V2000
   -1.6969    5.4464   29.5900 C   0  0  0  0  0  0  0  0  0  0  0  0
   -0.9205    4.4940   28.8751 O   0  0  0  0  0  0  0  0  0  0  0  0
    0.3361    4.8741   28.4776 C   0  0  0  0  0  0  0  0  0  0  0  0
    1.3634    5.2540   29.3483 C   0  0  0  0  0  0  0  0  0  0  0  0
    2.6276    5.6283   28.8599 C   0  0  0  0  0  0  0  0  0  0  0  0
    3.7751    6.0698   29.7631 C   0  0  2  0  0  0  0  0  0  0  0  0
    3.9038    7.5792   29.9943 C   0  0  0  0  0  0  0  0  0  0  0  0
    4.6453    8.3309   28.8896 C   0  0  0  0  0  0  0  0  0  0  0  0
    4.2677    9.4658   28.5906 O   0  0  0  0  0  0  0  0  0  0  0  0
    5.7612    7.6685   28.3160 N   0  0  0  0  0  0  0  0  0  0  0  0
    6.6194    8.4218   27.4396 C   0  0  0  0  0  0  0  0  0  0  0  0
    7.9944    8.5399   27.7071 C   0  0  0  0  0  0  0  0  0  0  0  0
    8.8406    9.2563   26.8529 C   0  0  0  0  0  0  0  0  0  0  0  0
    8.3209    9.8742   25.7208 C   0  0  0  0  0  0  0  0  0  0  0  0
    6.9610    9.7781   25.4618 C   0  0  0  0  0  0  0  0  0  0  0  0
    6.4508   10.3910   24.3857 F   0  0  0  0  0  0  0  0  0  0  0  0
    6.1113    9.0654   26.3050 C   0  0  0  0  0  0  0  0  0  0  0  0
    5.9700    6.3240   28.5999 C   0  0  0  0  0  0  0  0  0  0  0  0
    5.0797    5.5914   29.2596 C   0  0  0  0  0  0  0  0  0  0  0  0
    5.6850    4.2921   29.5183 C   0  0  0  0  0  0  0  0  0  0  0  0
    5.1634    3.3825   30.1353 O   0  0  0  0  0  0  0  0  0  0  0  0
    6.9405    4.2812   28.9939 O   0  0  0  0  0  0  0  0  0  0  0  0
    7.1968    5.5343   28.3464 C   0  0  0  0  0  0  0  0  0  0  0  0
    2.8368    5.6289   27.4651 C   0  0  0  0  0  0  0  0  0  0  0  0
    1.8219    5.2663   26.5756 C   0  0  0  0  0  0  0  0  0  0  0  0
    1.9472    5.2418   25.2107 O   0  0  0  0  0  0  0  0  0  0  0  0
    2.7340    4.2039   24.6417 C   0  0  0  0  0  0  0  0  0  0  0  0
    0.5702    4.9016   27.0938 C   0  0  0  0  0  0  0  0  0  0  0  0
   -0.4265    4.4931   26.2341 O   0  0  0  0  0  0  0  0  0  0  0  0
   -0.8129    5.5779   25.3924 C   0  0  0  0  0  0  0  0  0  0  0  0
  1  2  1  0
  2  3  1  0
  3  4  2  0
  4  5  1  0
  6  5  1  6
  6  7  1  0
  7  8  1  0
  8  9  2  0
  8 10  1  0
 10 11  1  0
 11 12  2  0
 12 13  1  0
 13 14  2  0
 14 15  1  0
 15 16  1  0
 15 17  2  0
 10 18  1  0
 18 19  2  0
 19 20  1  0
 20 21  2  0
 20 22  1  0
 22 23  1  0
  5 24  2  0
 24 25  1  0
 25 26  1  0
 26 27  1  0
 25 28  2  0
 28 29  1  0
 29 30  1  0
 28  3  1  0
 19  6  1  0
 17 11  1  0
 23 18  1  0
M  END
