
     RDKit          3D

 11 11  0  0  0  0  0  0  0  0999 V2000
   14.1465   -1.0443   21.9182 O   0  0  0  0  0  0  0  0  0  0  0  0
   14.1180   -1.5006   23.0671 N   0  0  0  0  0  0  0  0  0  0  0  0
   14.6826   -2.5293   23.4579 O   0  0  0  0  0  0  0  0  0  0  0  0
   13.3119   -0.8033   24.0255 C   0  0  0  0  0  0  0  0  0  0  0  0
   12.4752    0.2216   23.5726 C   0  0  0  0  0  0  0  0  0  0  0  0
   11.7009    0.8935   24.5101 C   0  0  0  0  0  0  0  0  0  0  0  0
   10.4380    2.4246   23.9334 I   0  0  0  0  0  0  0  0  0  0  0  0
   11.7957    0.5124   25.8422 C   0  0  0  0  0  0  0  0  0  0  0  0
   12.6023   -0.4858   26.2860 N   0  0  0  0  0  0  0  0  0  0  0  0
   13.3581   -1.1398   25.3675 C   0  0  0  0  0  0  0  0  0  0  0  0
   14.4354   -2.5509   26.0487 Br  0  0  0  0  0  0  0  0  0  0  0  0
  1  2  2  0
  2  3  1  0
  2  4  1  0
  4  5  2  0
  5  6  1  0
  6  7  1  0
  6  8  2  0
  8  9  1  0
  9 10  2  0
 10 11  1  0
 10  4  1  0
M  CHG  2   2   1   3  -1
M  END
