
     RDKit          3D

 27 29  0  0  0  0  0  0  0  0999 V2000
    6.2607    2.6620   21.7462 C   0  0  0  0  0  0  0  0  0  0  0  0
    6.7017    2.1942   23.0199 O   0  0  0  0  0  0  0  0  0  0  0  0
    8.0331    2.3546   23.2402 C   0  0  0  0  0  0  0  0  0  0  0  0
    8.9211    1.9220   22.5154 O   0  0  0  0  0  0  0  0  0  0  0  0
    8.2785    3.1074   24.4531 C   0  0  0  0  0  0  0  0  0  0  0  0
    8.7302    4.4098   24.3755 N   0  0  0  0  0  0  0  0  0  0  0  0
    8.9010    4.9202   25.6266 C   0  0  0  0  0  0  0  0  0  0  0  0
    8.5487    3.9546   26.5477 C   0  0  0  0  0  0  0  0  0  0  0  0
    8.1527    2.7928   25.8102 C   0  0  0  0  0  0  0  0  0  0  0  0
    7.6923    1.4938   26.3826 C   0  0  0  0  0  0  0  0  0  0  0  0
    8.6334    4.2314   27.9828 C   0  0  0  0  0  0  0  0  0  0  0  0
    8.3753    3.3902   28.8400 O   0  0  0  0  0  0  0  0  0  0  0  0
    8.9934    5.6636   28.3730 C   0  0  0  0  0  0  0  0  0  0  0  0
    9.9650    6.3153   27.3630 C   0  0  2  0  0  0  0  0  0  0  0  0
   10.3674    7.7212   27.7802 C   0  0  0  0  0  0  0  0  0  0  0  0
    9.9539    8.2679   29.0081 C   0  0  0  0  0  0  0  0  0  0  0  0
   10.3225    9.5647   29.3772 C   0  0  0  0  0  0  0  0  0  0  0  0
    9.9592   10.1748   30.5500 O   0  0  0  0  0  0  0  0  0  0  0  0
    8.6675   10.7644   30.6039 C   0  0  0  0  0  0  0  0  0  0  0  0
   11.0967   10.3288   28.4896 C   0  0  0  0  0  0  0  0  0  0  0  0
   11.4959   11.5947   28.8611 O   0  0  0  0  0  0  0  0  0  0  0  0
   12.1055   11.5489   30.1498 C   0  0  0  0  0  0  0  0  0  0  0  0
   11.5426    9.7974   27.2688 C   0  0  0  0  0  0  0  0  0  0  0  0
   12.3116   10.6231   26.4899 O   0  0  0  0  0  0  0  0  0  0  0  0
   12.7747   10.1052   25.2506 C   0  0  0  0  0  0  0  0  0  0  0  0
   11.1636    8.4982   26.9198 C   0  0  0  0  0  0  0  0  0  0  0  0
    9.3912    6.2945   25.9240 C   0  0  0  0  0  0  0  0  0  0  0  0
  1  2  1  0
  2  3  1  0
  3  4  2  0
  3  5  1  0
  5  6  1  0
  6  7  1  0
  7  8  2  0
  8  9  1  0
  9 10  1  0
  8 11  1  0
 11 12  2  0
 11 13  1  0
 13 14  1  0
 14 15  1  1
 15 16  2  0
 16 17  1  0
 17 18  1  0
 18 19  1  0
 17 20  2  0
 20 21  1  0
 21 22  1  0
 20 23  1  0
 23 24  1  0
 24 25  1  0
 23 26  2  0
 14 27  1  0
  9  5  2  0
 26 15  1  0
 27  7  1  0
M  END
