
     RDKit          3D

 36 39  0  0  0  0  0  0  0  0999 V2000
   13.4738    5.3322   22.7921 C   0  0  0  0  0  0  0  0  0  0  0  0
   12.4154    4.4154   22.5566 O   0  0  0  0  0  0  0  0  0  0  0  0
   12.4632    3.2080   23.2100 C   0  0  0  0  0  0  0  0  0  0  0  0
   13.5704    2.3530   23.2097 C   0  0  0  0  0  0  0  0  0  0  0  0
   13.5307    1.1411   23.9043 C   0  0  0  0  0  0  0  0  0  0  0  0
   12.3837    0.7649   24.6107 C   0  0  0  0  0  0  0  0  0  0  0  0
   12.3359   -0.5472   25.3661 C   0  0  0  0  0  0  0  0  0  0  0  0
   12.4104   -1.7241   24.4835 N   0  0  0  0  0  0  0  0  0  0  0  0
   12.0111   -2.9813   25.1431 C   0  0  0  0  0  0  0  0  0  0  0  0
   10.5027   -3.1048   25.3926 C   0  0  2  0  0  0  0  0  0  0  0  0
   10.1556   -4.4332   26.0514 C   0  0  0  0  0  0  0  0  0  0  0  0
   10.6511   -5.4879   25.6600 O   0  0  0  0  0  0  0  0  0  0  0  0
    9.2794   -4.3671   27.1111 N   0  0  0  0  0  0  0  0  0  0  0  0
    8.8775   -5.5730   27.8153 C   0  0  0  0  0  0  0  0  0  0  0  0
    7.5412   -5.3660   28.5557 C   0  0  0  0  0  0  0  0  0  0  0  0
    7.0661   -6.5860   29.2563 N   0  0  0  0  0  0  0  0  0  0  0  0
    8.0333   -7.0370   30.2607 C   0  0  0  0  0  0  0  0  0  0  0  0
    5.7791   -6.3108   29.9035 C   0  0  0  0  0  0  0  0  0  0  0  0
    9.7122   -2.8990   24.0965 C   0  0  0  0  0  0  0  0  0  0  0  0
   10.1189   -1.5878   23.4117 C   0  0  2  0  0  0  0  0  0  0  0  0
    9.4048   -1.4473   22.0589 C   0  0  0  0  0  0  0  0  0  0  0  0
    9.4281   -0.0738   21.6717 O   0  0  0  0  0  0  0  0  0  0  0  0
    8.2370    0.4904   21.3002 C   0  0  0  0  0  0  0  0  0  0  0  0
    7.7572    1.4673   22.1916 C   0  0  0  0  0  0  0  0  0  0  0  0
    6.5569    2.1414   21.9524 C   0  0  0  0  0  0  0  0  0  0  0  0
    5.8405    1.8137   20.8166 C   0  0  0  0  0  0  0  0  0  0  0  0
    6.3104    0.8435   19.9261 C   0  0  0  0  0  0  0  0  0  0  0  0
    7.5074    0.1778   20.1502 C   0  0  0  0  0  0  0  0  0  0  0  0
    5.3861    0.7053   18.7563 C   0  0  0  0  0  0  0  0  0  0  0  0
    4.1100    1.3601   19.3049 C   0  0  0  0  0  0  0  0  0  0  0  0
    4.5602    2.4138   20.3268 C   0  0  0  0  0  0  0  0  0  0  0  0
   11.6497   -1.5197   23.2383 C   0  0  0  0  0  0  0  0  0  0  0  0
   11.2726    1.6237   24.6113 C   0  0  0  0  0  0  0  0  0  0  0  0
   11.3015    2.8391   23.9170 C   0  0  0  0  0  0  0  0  0  0  0  0
   10.2567    3.7301   23.8697 O   0  0  0  0  0  0  0  0  0  0  0  0
    9.4828    3.8943   25.0488 C   0  0  0  0  0  0  0  0  0  0  0  0
  1  2  1  0
  2  3  1  0
  3  4  2  0
  4  5  1  0
  5  6  2  0
  6  7  1  0
  7  8  1  0
  8  9  1  0
  9 10  1  0
 10 11  1  6
 11 12  2  0
 11 13  1  0
 13 14  1  0
 14 15  1  0
 15 16  1  0
 16 17  1  0
 16 18  1  0
 10 19  1  0
 19 20  1  0
 20 21  1  6
 21 22  1  0
 22 23  1  0
 23 24  2  0
 24 25  1  0
 25 26  2  0
 26 27  1  0
 27 28  2  0
 27 29  1  0
 29 30  1  0
 30 31  1  0
 20 32  1  0
  6 33  1  0
 33 34  2  0
 34 35  1  0
 35 36  1  0
 34  3  1  0
 32  8  1  0
 28 23  1  0
 31 26  1  0
M  END
