
     RDKit          3D

 34 37  0  0  0  0  0  0  0  0999 V2000
   11.8943    9.7383   27.1158 C   0  0  0  0  0  0  0  0  0  0  0  0
   11.2089    8.6046   26.4544 C   0  0  0  0  0  0  0  0  0  0  0  0
   10.2237    7.7516   26.9917 C   0  0  0  0  0  0  0  0  0  0  0  0
    9.9141    6.8645   25.9826 C   0  0  0  0  0  0  0  0  0  0  0  0
    8.9352    5.7484   25.9578 C   0  0  0  0  0  0  0  0  0  0  0  0
   10.7032    7.2276   24.9181 N   0  0  0  0  0  0  0  0  0  0  0  0
   10.7971    6.5967   23.6144 C   0  0  0  0  0  0  0  0  0  0  0  0
   12.1315    5.9112   23.4209 C   0  0  0  0  0  0  0  0  0  0  0  0
   13.1622    6.5937   23.3846 O   0  0  0  0  0  0  0  0  0  0  0  0
   12.1744    4.5283   23.2958 N   0  0  0  0  0  0  0  0  0  0  0  0
   10.9973    3.6531   23.3373 C   0  0  0  0  0  0  0  0  0  0  0  0
   11.3362    2.2411   23.8480 C   0  0  0  0  0  0  0  0  0  0  0  0
   12.4551    1.6183   23.1019 N   0  0  0  0  0  0  0  0  0  0  0  0
   12.7197    0.2721   23.6470 C   0  0  0  0  0  0  0  0  0  0  0  0
   14.0024   -0.3975   23.1262 C   0  0  0  0  0  0  0  0  0  0  0  0
   13.7235   -1.7843   22.8993 O   0  0  0  0  0  0  0  0  0  0  0  0
   13.3156   -2.5037   23.9894 C   0  0  0  0  0  0  0  0  0  0  0  0
   14.1396   -2.9395   25.0247 C   0  0  0  0  0  0  0  0  0  0  0  0
   13.5936   -3.6331   26.1054 C   0  0  0  0  0  0  0  0  0  0  0  0
   12.2245   -3.8997   26.1502 C   0  0  0  0  0  0  0  0  0  0  0  0
   11.3849   -3.5000   25.1042 C   0  0  0  0  0  0  0  0  0  0  0  0
    9.8951   -3.7809   25.1364 C   0  0  0  0  0  0  0  0  0  0  0  0
    9.4686   -5.1642   24.8798 N   0  0  0  0  0  0  0  0  0  0  0  0
   10.1277   -6.1385   25.7433 C   0  0  0  0  0  0  0  0  0  0  0  0
    8.0162   -5.3695   24.8534 C   0  0  0  0  0  0  0  0  0  0  0  0
    7.4148   -5.0824   23.5003 C   0  0  0  0  0  0  0  0  0  0  0  0
    7.1043   -5.9704   22.4865 C   0  0  0  0  0  0  0  0  0  0  0  0
    6.5490   -5.3237   21.3453 C   0  0  0  0  0  0  0  0  0  0  0  0
    6.4653   -3.9611   21.5154 C   0  0  0  0  0  0  0  0  0  0  0  0
    7.0568   -3.4658   23.0416 S   0  0  0  0  0  0  0  0  0  0  0  0
   11.9512   -2.8058   24.0232 C   0  0  0  0  0  0  0  0  0  0  0  0
   13.6371    2.5036   23.1898 C   0  0  0  0  0  0  0  0  0  0  0  0
   13.3507    3.9254   22.6682 C   0  0  0  0  0  0  0  0  0  0  0  0
   11.5069    8.2770   25.1925 N   0  0  0  0  0  0  0  0  0  0  0  0
  1  2  1  0
  2  3  1  0
  3  4  2  0
  4  5  1  0
  4  6  1  0
  6  7  1  0
  7  8  1  0
  8  9  2  0
  8 10  1  0
 10 11  1  0
 11 12  1  0
 12 13  1  0
 13 14  1  0
 14 15  1  0
 15 16  1  0
 16 17  1  0
 17 18  2  0
 18 19  1  0
 19 20  2  0
 20 21  1  0
 21 22  1  0
 22 23  1  0
 23 24  1  0
 23 25  1  0
 25 26  1  0
 26 27  2  0
 27 28  1  0
 28 29  2  0
 29 30  1  0
 21 31  2  0
 13 32  1  0
 32 33  1  0
  6 34  1  0
 34  2  2  0
 33 10  1  0
 31 17  1  0
 30 26  1  0
M  END
