
     RDKit          3D

 36 39  0  0  0  0  0  0  0  0999 V2000
    5.9510   -4.3690   22.6818 C   0  0  0  0  0  0  0  0  0  0  0  0
    6.9410   -4.9485   23.6811 C   0  0  0  0  0  0  0  0  0  0  0  0
    7.1016   -4.0069   24.7388 O   0  0  0  0  0  0  0  0  0  0  0  0
    7.8206   -4.3967   25.8405 C   0  0  0  0  0  0  0  0  0  0  0  0
    7.2969   -5.1290   26.9120 C   0  0  0  0  0  0  0  0  0  0  0  0
    8.1021   -5.4702   28.0058 C   0  0  0  0  0  0  0  0  0  0  0  0
    9.4389   -5.0843   28.0403 C   0  0  0  0  0  0  0  0  0  0  0  0
    9.9701   -4.3567   26.9772 C   0  0  0  0  0  0  0  0  0  0  0  0
    9.1714   -4.0020   25.8700 C   0  0  0  0  0  0  0  0  0  0  0  0
    9.7994   -3.2063   24.7388 C   0  0  0  0  0  0  0  0  0  0  0  0
   11.0865   -2.5798   25.1115 N   0  0  0  0  0  0  0  0  0  0  0  0
   12.0400   -2.6851   23.9903 C   0  0  0  0  0  0  0  0  0  0  0  0
   13.3351   -1.8912   24.1831 C   0  0  0  0  0  0  0  0  0  0  0  0
   13.2003   -0.4473   23.8401 C   0  0  0  0  0  0  0  0  0  0  0  0
   14.1464    0.2938   23.3006 N   0  0  0  0  0  0  0  0  0  0  0  0
   13.6452    1.5501   23.1046 N   0  0  0  0  0  0  0  0  0  0  0  0
   12.3962    1.5710   23.5322 C   0  0  0  0  0  0  0  0  0  0  0  0
   11.4638    2.7459   23.4370 C   0  0  1  0  0  0  0  0  0  0  0  0
   12.1720    3.9324   22.7571 C   0  0  0  0  0  0  0  0  0  0  0  0
   12.0259    5.2849   23.4847 C   0  0  0  0  0  0  0  0  0  0  0  0
   13.2450    6.1890   23.2980 C   0  0  0  0  0  0  0  0  0  0  0  0
   10.7678    6.0010   22.9835 C   0  0  0  0  0  0  0  0  0  0  0  0
   10.3159    2.3045   22.6708 N   0  0  0  0  0  0  0  0  0  0  0  0
    9.0342    2.4510   23.1618 C   0  0  0  0  0  0  0  0  0  0  0  0
    8.8066    2.9319   24.2708 O   0  0  0  0  0  0  0  0  0  0  0  0
    8.0071    1.9580   22.2696 C   0  0  0  0  0  0  0  0  0  0  0  0
    6.6670    2.2720   22.1541 C   0  0  0  0  0  0  0  0  0  0  0  0
    6.1443    1.4529   21.1229 C   0  0  0  0  0  0  0  0  0  0  0  0
    7.1959    0.6875   20.6597 C   0  0  0  0  0  0  0  0  0  0  0  0
    7.3170   -0.3542   19.6072 C   0  0  0  0  0  0  0  0  0  0  0  0
    7.3379    0.2704   18.3221 O   0  0  0  0  0  0  0  0  0  0  0  0
    6.0600    0.7260   17.9021 C   0  0  0  0  0  0  0  0  0  0  0  0
    8.3304    0.9946   21.3493 O   0  0  0  0  0  0  0  0  0  0  0  0
   12.0815    0.3278   24.0297 N   0  0  0  0  0  0  0  0  0  0  0  0
   10.8158   -0.0819   24.6037 C   0  0  0  0  0  0  0  0  0  0  0  0
   10.9205   -1.2118   25.6356 C   0  0  0  0  0  0  0  0  0  0  0  0
  1  2  1  0
  2  3  1  0
  3  4  1  0
  4  5  2  0
  5  6  1  0
  6  7  2  0
  7  8  1  0
  8  9  2  0
  9 10  1  0
 10 11  1  0
 11 12  1  0
 12 13  1  0
 13 14  1  0
 14 15  2  0
 15 16  1  0
 16 17  2  0
 17 18  1  0
 18 19  1  6
 19 20  1  0
 20 21  1  0
 20 22  1  0
 18 23  1  0
 23 24  1  0
 24 25  2  0
 24 26  1  0
 26 27  2  0
 27 28  1  0
 28 29  2  0
 29 30  1  0
 30 31  1  0
 31 32  1  0
 29 33  1  0
 17 34  1  0
 34 35  1  0
 35 36  1  0
  9  4  1  0
 36 11  1  0
 34 14  1  0
 33 26  1  0
M  END
