
     RDKit          3D

 36 40  0  0  0  0  0  0  0  0999 V2000
    5.9739   -0.4471   23.5385 O   0  0  0  0  0  0  0  0  0  0  0  0
    6.8257   -1.2116   23.0764 C   0  0  0  0  0  0  0  0  0  0  0  0
    7.2231   -1.1540   21.5814 C   0  0  1  0  0  0  0  0  0  0  0  0
    6.1736   -1.8597   20.7211 C   0  0  0  0  0  0  0  0  0  0  0  0
    5.9029   -0.8848   19.6001 C   0  0  0  0  0  0  0  0  0  0  0  0
    6.1922    0.4434   20.2527 C   0  0  0  0  0  0  0  0  0  0  0  0
    7.3216    0.1943   21.0907 O   0  0  0  0  0  0  0  0  0  0  0  0
    7.4239   -2.1964   23.8704 N   0  0  0  0  0  0  0  0  0  0  0  0
    8.3969   -3.1593   23.3457 C   0  0  0  0  0  0  0  0  0  0  0  0
    8.6148   -4.3668   24.2793 C   0  0  0  0  0  0  0  0  0  0  0  0
    8.8748   -4.0315   25.6931 N   0  0  0  0  0  0  0  0  0  0  0  0
   10.1971   -3.4176   25.9187 C   0  0  0  0  0  0  0  0  0  0  0  0
   11.3769   -4.3317   25.5465 C   0  0  0  0  0  0  0  0  0  0  0  0
   12.5863   -3.5846   25.7079 O   0  0  0  0  0  0  0  0  0  0  0  0
   12.6710   -2.3928   25.0411 C   0  0  0  0  0  0  0  0  0  0  0  0
   12.0955   -2.1007   23.8044 C   0  0  0  0  0  0  0  0  0  0  0  0
   12.2604   -0.8343   23.2315 C   0  0  0  0  0  0  0  0  0  0  0  0
   13.0055    0.1559   23.8854 C   0  0  0  0  0  0  0  0  0  0  0  0
   13.1872    1.5256   23.2633 C   0  0  0  0  0  0  0  0  0  0  0  0
   12.8329    2.6302   24.1706 N   0  0  0  0  0  0  0  0  0  0  0  0
   13.7268    3.7922   24.0552 C   0  0  0  0  0  0  0  0  0  0  0  0
   13.5235    4.6146   22.7777 C   0  0  0  0  0  0  0  0  0  0  0  0
   12.0614    5.0529   22.5863 C   0  0  0  0  0  0  0  0  0  0  0  0
   11.7033    6.2017   23.5573 C   0  0  0  0  0  0  0  0  0  0  0  0
   10.2180    6.4400   23.6982 C   0  0  0  0  0  0  0  0  0  0  0  0
    9.4510    6.8245   22.5895 C   0  0  0  0  0  0  0  0  0  0  0  0
    8.0796    7.0495   22.7217 C   0  0  0  0  0  0  0  0  0  0  0  0
    7.4612    6.8908   23.9603 C   0  0  0  0  0  0  0  0  0  0  0  0
    8.2132    6.5046   25.0684 C   0  0  0  0  0  0  0  0  0  0  0  0
    9.5848    6.2789   24.9385 C   0  0  0  0  0  0  0  0  0  0  0  0
   11.1454    3.8256   22.7337 C   0  0  0  0  0  0  0  0  0  0  0  0
   11.4279    3.0326   24.0136 C   0  0  0  0  0  0  0  0  0  0  0  0
   13.5785   -0.1439   25.1276 C   0  0  0  0  0  0  0  0  0  0  0  0
   13.4103   -1.4076   25.6980 C   0  0  0  0  0  0  0  0  0  0  0  0
    7.7872   -3.1443   26.1656 C   0  0  0  0  0  0  0  0  0  0  0  0
    7.5489   -1.8933   25.3001 C   0  0  0  0  0  0  0  0  0  0  0  0
  1  2  2  0
  3  2  1  1
  3  4  1  0
  4  5  1  0
  5  6  1  0
  6  7  1  0
  2  8  1  0
  8  9  1  0
  9 10  1  0
 10 11  1  0
 11 12  1  0
 12 13  1  0
 13 14  1  0
 14 15  1  0
 15 16  2  0
 16 17  1  0
 17 18  2  0
 18 19  1  0
 19 20  1  0
 20 21  1  0
 21 22  1  0
 22 23  1  0
 23 24  1  0
 24 25  1  0
 25 26  2  0
 26 27  1  0
 27 28  2  0
 28 29  1  0
 29 30  2  0
 23 31  1  0
 31 32  1  0
 18 33  1  0
 33 34  2  0
 11 35  1  0
 35 36  1  0
  7  3  1  0
 36  8  1  0
 34 15  1  0
 32 20  1  0
 30 25  1  0
M  END
