
     RDKit          3D

 33 37  0  0  0  0  0  0  0  0999 V2000
    9.8160    3.1224   22.8293 C   0  0  0  0  0  0  0  0  0  0  0  0
   11.1243    3.7562   23.1757 C   0  0  0  0  0  0  0  0  0  0  0  0
   11.2794    5.1556   23.4503 C   0  0  0  0  0  0  0  0  0  0  0  0
   12.5834    5.5070   23.7087 C   0  0  0  0  0  0  0  0  0  0  0  0
   13.6332    4.1669   23.6280 S   0  0  0  0  0  0  0  0  0  0  0  0
   12.3405    3.0915   23.2709 C   0  0  0  0  0  0  0  0  0  0  0  0
   12.6399    1.6265   23.0682 C   0  0  0  0  0  0  0  0  0  0  0  0
   11.6966    0.7636   23.8015 N   0  0  0  0  0  0  0  0  0  0  0  0
   12.3438    0.1715   24.9974 C   0  0  0  0  0  0  0  0  0  0  0  0
   12.1502   -1.3448   24.9116 C   0  0  2  0  0  0  0  0  0  0  0  0
   13.1950   -2.1183   25.5241 N   0  0  0  0  0  0  0  0  0  0  0  0
   13.1756   -3.4287   25.8695 C   0  0  0  0  0  0  0  0  0  0  0  0
   14.3314   -3.7340   26.4121 N   0  0  0  0  0  0  0  0  0  0  0  0
   15.0744   -2.5771   26.3830 N   0  0  0  0  0  0  0  0  0  0  0  0
   14.3879   -1.5849   25.8345 N   0  0  0  0  0  0  0  0  0  0  0  0
   11.9953   -1.5862   23.4176 C   0  0  0  0  0  0  0  0  0  0  0  0
   11.1916   -0.3712   22.9787 C   0  0  1  0  0  0  0  0  0  0  0  0
    9.6853   -0.5475   23.2796 C   0  0  0  0  0  0  0  0  0  0  0  0
    9.1651   -0.1940   24.3339 O   0  0  0  0  0  0  0  0  0  0  0  0
    9.0042   -1.1568   22.2492 N   0  0  0  0  0  0  0  0  0  0  0  0
    7.5782   -1.4131   22.3370 C   0  0  0  0  0  0  0  0  0  0  0  0
    7.2502   -2.9064   22.4044 C   0  0  0  0  0  0  0  0  0  0  0  0
    6.1106   -3.4534   21.7888 C   0  0  0  0  0  0  0  0  0  0  0  0
    5.8516   -4.8247   21.8391 C   0  0  0  0  0  0  0  0  0  0  0  0
    6.7369   -5.6781   22.4887 C   0  0  0  0  0  0  0  0  0  0  0  0
    7.8847   -5.1621   23.0839 C   0  0  0  0  0  0  0  0  0  0  0  0
    8.1428   -3.7909   23.0348 C   0  0  0  0  0  0  0  0  0  0  0  0
    6.8968   -0.6790   21.1827 C   0  0  0  0  0  0  0  0  0  0  0  0
    5.7730    0.1244   21.4284 C   0  0  0  0  0  0  0  0  0  0  0  0
    5.1609    0.8275   20.3896 C   0  0  0  0  0  0  0  0  0  0  0  0
    5.6663    0.7411   19.0946 C   0  0  0  0  0  0  0  0  0  0  0  0
    6.7873   -0.0430   18.8364 C   0  0  0  0  0  0  0  0  0  0  0  0
    7.4017   -0.7465   19.8728 C   0  0  0  0  0  0  0  0  0  0  0  0
  1  2  1  0
  2  3  1  0
  3  4  2  0
  4  5  1  0
  5  6  1  0
  6  7  1  0
  7  8  1  0
  8  9  1  0
  9 10  1  0
 10 11  1  6
 11 12  1  0
 12 13  2  0
 13 14  1  0
 14 15  2  0
 10 16  1  0
 16 17  1  0
 17 18  1  1
 18 19  2  0
 18 20  1  0
 20 21  1  0
 21 22  1  0
 22 23  2  0
 23 24  1  0
 24 25  2  0
 25 26  1  0
 26 27  2  0
 21 28  1  0
 28 29  2  0
 29 30  1  0
 30 31  2  0
 31 32  1  0
 32 33  2  0
  6  2  2  0
 17  8  1  0
 27 22  1  0
 33 28  1  0
 15 11  1  0
M  END
