
     RDKit          3D

 34 37  0  0  0  0  0  0  0  0999 V2000
    9.3993   -5.3875   25.7507 C   0  0  0  0  0  0  0  0  0  0  0  0
   10.8782   -5.0913   25.9066 C   0  0  0  0  0  0  0  0  0  0  0  0
   11.0633   -3.6754   25.7970 O   0  0  0  0  0  0  0  0  0  0  0  0
   12.3560   -3.2661   25.9132 C   0  0  0  0  0  0  0  0  0  0  0  0
   13.2896   -4.0249   26.1488 O   0  0  0  0  0  0  0  0  0  0  0  0
   12.4965   -1.8991   25.7388 N   0  0  0  0  0  0  0  0  0  0  0  0
   11.2920   -1.1198   25.4662 C   0  0  0  0  0  0  0  0  0  0  0  0
   11.4623    0.3774   25.7846 C   0  0  0  0  0  0  0  0  0  0  0  0
   12.6821    1.0001   25.2265 N   0  0  0  0  0  0  0  0  0  0  0  0
   12.5842    1.1510   23.7649 C   0  0  0  0  0  0  0  0  0  0  0  0
   11.2409    1.6776   23.3021 C   0  0  0  0  0  0  0  0  0  0  0  0
   10.3615    0.8578   22.5813 C   0  0  0  0  0  0  0  0  0  0  0  0
    9.1171    1.3403   22.1578 C   0  0  0  0  0  0  0  0  0  0  0  0
    8.7340    2.6487   22.4521 C   0  0  0  0  0  0  0  0  0  0  0  0
    7.5565    3.2438   22.0934 O   0  0  0  0  0  0  0  0  0  0  0  0
    6.3622    2.4813   22.2574 C   0  0  0  0  0  0  0  0  0  0  0  0
    6.0210    1.7647   20.9434 C   0  0  2  0  0  0  0  0  0  0  0  0
    4.8436    2.4336   20.2139 C   0  0  0  0  0  0  0  0  0  0  0  0
    4.1609    1.5072   19.2053 C   0  0  0  0  0  0  0  0  0  0  0  0
    5.0575    0.3549   18.7694 C   0  0  0  0  0  0  0  0  0  0  0  0
    5.4988   -0.4407   19.9113 N   0  0  0  0  0  0  0  0  0  0  0  0
    5.7301   -1.8084   19.7144 C   0  0  0  0  0  0  0  0  0  0  0  0
    5.5606   -2.3241   18.6068 O   0  0  0  0  0  0  0  0  0  0  0  0
    6.1773   -2.6413   20.8496 C   0  0  0  0  0  0  0  0  0  0  0  0
    7.4034   -2.4512   21.4677 C   0  0  0  0  0  0  0  0  0  0  0  0
    7.6372   -3.5900   22.7230 S   0  0  0  0  0  0  0  0  0  0  0  0
    6.1100   -4.2822   22.3600 C   0  0  0  0  0  0  0  0  0  0  0  0
    5.6120   -5.4459   23.1426 C   0  0  0  0  0  0  0  0  0  0  0  0
    5.4511   -3.7132   21.3747 N   0  0  0  0  0  0  0  0  0  0  0  0
    5.7481    0.2716   21.1699 C   0  0  0  0  0  0  0  0  0  0  0  0
    9.6033    3.4665   23.1767 C   0  0  0  0  0  0  0  0  0  0  0  0
   10.8442    2.9873   23.6022 C   0  0  0  0  0  0  0  0  0  0  0  0
   13.8523    0.1994   25.6485 C   0  0  0  0  0  0  0  0  0  0  0  0
   13.7678   -1.3034   25.3235 C   0  0  0  0  0  0  0  0  0  0  0  0
  1  2  1  0
  2  3  1  0
  3  4  1  0
  4  5  2  0
  4  6  1  0
  6  7  1  0
  7  8  1  0
  8  9  1  0
  9 10  1  0
 10 11  1  0
 11 12  2  0
 12 13  1  0
 13 14  2  0
 14 15  1  0
 15 16  1  0
 17 16  1  1
 17 18  1  0
 18 19  1  0
 19 20  1  0
 20 21  1  0
 21 22  1  0
 22 23  2  0
 22 24  1  0
 24 25  2  0
 25 26  1  0
 26 27  1  0
 27 28  1  0
 27 29  2  0
 21 30  1  0
 14 31  1  0
 31 32  2  0
  9 33  1  0
 33 34  1  0
 34  6  1  0
 32 11  1  0
 30 17  1  0
 29 24  1  0
M  END
