
     RDKit          3D

 36 39  0  0  0  0  0  0  0  0999 V2000
    6.7173   -0.0928   18.6785 C   0  0  0  0  0  0  0  0  0  0  0  0
    5.5087   -0.8670   19.1904 C   0  0  0  0  0  0  0  0  0  0  0  0
    5.7540   -1.4518   20.5108 N   0  0  0  0  0  0  0  0  0  0  0  0
    5.9268   -0.5111   21.6228 C   0  0  0  0  0  0  0  0  0  0  0  0
    7.3842   -0.3646   22.0279 C   0  0  0  0  0  0  0  0  0  0  0  0
    5.8686   -2.8378   20.6013 C   0  0  0  0  0  0  0  0  0  0  0  0
    5.7342   -3.5612   19.6106 O   0  0  0  0  0  0  0  0  0  0  0  0
    6.1247   -3.4539   21.9770 C   0  0  1  0  0  0  0  0  0  0  0  0
    5.0575   -4.5042   22.3092 C   0  0  0  0  0  0  0  0  0  0  0  0
    5.3888   -5.2262   23.6168 C   0  0  0  0  0  0  0  0  0  0  0  0
    6.8318   -5.7439   23.6436 C   0  0  0  0  0  0  0  0  0  0  0  0
    7.8446   -4.7314   23.3104 N   0  0  0  0  0  0  0  0  0  0  0  0
    8.0473   -3.7327   24.3709 C   0  0  0  0  0  0  0  0  0  0  0  0
    9.4984   -3.5488   24.7574 C   0  0  0  0  0  0  0  0  0  0  0  0
   10.0187   -4.2300   25.8656 C   0  0  0  0  0  0  0  0  0  0  0  0
   11.3741   -4.1418   26.1722 C   0  0  0  0  0  0  0  0  0  0  0  0
   12.2176   -3.3389   25.4017 C   0  0  0  0  0  0  0  0  0  0  0  0
   11.7271   -2.6205   24.3047 C   0  0  0  0  0  0  0  0  0  0  0  0
   10.3572   -2.7388   23.9958 C   0  0  0  0  0  0  0  0  0  0  0  0
   12.6333   -1.8086   23.4031 C   0  0  0  0  0  0  0  0  0  0  0  0
   13.3444   -0.7218   24.0948 N   0  0  0  0  0  0  0  0  0  0  0  0
   13.7584    0.3620   23.1898 C   0  0  0  0  0  0  0  0  0  0  0  0
   12.8812    1.5993   23.1400 C   0  0  0  0  0  0  0  0  0  0  0  0
   11.4931    1.4971   22.9721 C   0  0  0  0  0  0  0  0  0  0  0  0
   10.6898    2.6422   22.9506 C   0  0  0  0  0  0  0  0  0  0  0  0
   11.2648    3.9112   23.0898 C   0  0  0  0  0  0  0  0  0  0  0  0
   10.4481    5.1540   23.1075 C   0  0  0  0  0  0  0  0  0  0  0  0
   10.9107    6.2703   22.9272 O   0  0  0  0  0  0  0  0  0  0  0  0
    9.1511    4.8617   23.3747 O   0  0  0  0  0  0  0  0  0  0  0  0
    8.2349    5.8973   23.0251 C   0  0  0  0  0  0  0  0  0  0  0  0
   12.6552    4.0233   23.2182 C   0  0  0  0  0  0  0  0  0  0  0  0
   13.4551    2.8773   23.2460 C   0  0  0  0  0  0  0  0  0  0  0  0
   14.4548   -1.2298   24.9145 C   0  0  0  0  0  0  0  0  0  0  0  0
   13.9748   -2.0367   26.1242 C   0  0  0  0  0  0  0  0  0  0  0  0
   13.5417   -3.3462   25.7438 O   0  0  0  0  0  0  0  0  0  0  0  0
    7.5209   -4.1035   22.0142 C   0  0  0  0  0  0  0  0  0  0  0  0
  1  2  1  0
  2  3  1  0
  3  4  1  0
  4  5  1  0
  3  6  1  0
  6  7  2  0
  8  6  1  6
  8  9  1  0
  9 10  1  0
 10 11  1  0
 11 12  1  0
 12 13  1  0
 13 14  1  0
 14 15  2  0
 15 16  1  0
 16 17  2  0
 17 18  1  0
 18 19  2  0
 18 20  1  0
 20 21  1  0
 21 22  1  0
 22 23  1  0
 23 24  2  0
 24 25  1  0
 25 26  2  0
 26 27  1  0
 27 28  2  0
 27 29  1  0
 29 30  1  0
 26 31  1  0
 31 32  2  0
 21 33  1  0
 33 34  1  0
 34 35  1  0
 12 36  1  0
 36  8  1  0
 19 14  1  0
 32 23  1  0
 35 17  1  0
M  END
