
     RDKit          3D

 35 39  0  0  0  0  0  0  0  0999 V2000
   13.4088    3.3256   22.4169 O   0  0  0  0  0  0  0  0  0  0  0  0
   12.4439    3.2660   23.1702 C   0  0  0  0  0  0  0  0  0  0  0  0
   11.5310    4.2904   23.3407 N   0  0  0  0  0  0  0  0  0  0  0  0
   11.7054    5.5568   22.6592 C   0  0  0  0  0  0  0  0  0  0  0  0
   12.7553    6.4255   23.3491 C   0  0  0  0  0  0  0  0  0  0  0  0
   12.1361    7.3684   24.3483 C   0  0  0  0  0  0  0  0  0  0  0  0
   11.0152    6.9803   25.0951 C   0  0  0  0  0  0  0  0  0  0  0  0
   10.4600    7.8476   26.0377 C   0  0  0  0  0  0  0  0  0  0  0  0
   11.0209    9.1071   26.2444 C   0  0  0  0  0  0  0  0  0  0  0  0
   12.1380    9.5002   25.5106 C   0  0  0  0  0  0  0  0  0  0  0  0
   12.6957    8.6344   24.5686 C   0  0  0  0  0  0  0  0  0  0  0  0
   12.0958    2.0007   23.9701 C   0  0  2  0  0  0  0  0  0  0  0  0
   13.3667    1.2331   24.3491 C   0  0  0  0  0  0  0  0  0  0  0  0
   13.1528   -0.1825   23.8093 C   0  0  1  0  0  0  0  0  0  0  0  0
   13.7027   -1.2266   24.6303 N   0  0  0  0  0  0  0  0  0  0  0  0
   13.6600   -1.3487   25.9824 C   0  0  0  0  0  0  0  0  0  0  0  0
   14.3075   -2.4396   26.3201 N   0  0  0  0  0  0  0  0  0  0  0  0
   14.7508   -2.9946   25.1428 N   0  0  0  0  0  0  0  0  0  0  0  0
   14.3812   -2.2586   24.1038 N   0  0  0  0  0  0  0  0  0  0  0  0
   11.6419   -0.2771   23.6270 C   0  0  0  0  0  0  0  0  0  0  0  0
   11.3114    1.0614   23.1164 N   0  0  0  0  0  0  0  0  0  0  0  0
    9.8706    1.3511   23.1721 C   0  0  0  0  0  0  0  0  0  0  0  0
    9.0436    0.0942   23.0273 C   0  0  0  0  0  0  0  0  0  0  0  0
    8.7806   -0.7159   24.1430 C   0  0  0  0  0  0  0  0  0  0  0  0
    7.9848   -1.8560   24.0215 C   0  0  0  0  0  0  0  0  0  0  0  0
    7.4470   -2.2028   22.7825 C   0  0  0  0  0  0  0  0  0  0  0  0
    7.7204   -1.4162   21.6625 C   0  0  0  0  0  0  0  0  0  0  0  0
    7.1891   -1.6723   20.4184 O   0  0  0  0  0  0  0  0  0  0  0  0
    6.4086   -0.6948   19.8447 C   0  0  0  0  0  0  0  0  0  0  0  0
    6.7956   -0.2339   18.5861 C   0  0  0  0  0  0  0  0  0  0  0  0
    6.0295    0.7317   17.9344 C   0  0  0  0  0  0  0  0  0  0  0  0
    4.8689    1.2223   18.5336 C   0  0  0  0  0  0  0  0  0  0  0  0
    4.4689    0.7431   19.7817 C   0  0  0  0  0  0  0  0  0  0  0  0
    5.2346   -0.2226   20.4363 C   0  0  0  0  0  0  0  0  0  0  0  0
    8.4991   -0.2640   21.7862 C   0  0  0  0  0  0  0  0  0  0  0  0
  1  2  2  0
  2  3  1  0
  3  4  1  0
  4  5  1  0
  5  6  1  0
  6  7  2  0
  7  8  1  0
  8  9  2  0
  9 10  1  0
 10 11  2  0
 12  2  1  6
 12 13  1  0
 13 14  1  0
 14 15  1  1
 15 16  1  0
 16 17  2  0
 17 18  1  0
 18 19  2  0
 14 20  1  0
 20 21  1  0
 21 22  1  0
 22 23  1  0
 23 24  2  0
 24 25  1  0
 25 26  2  0
 26 27  1  0
 27 28  1  0
 28 29  1  0
 29 30  2  0
 30 31  1  0
 31 32  2  0
 32 33  1  0
 33 34  2  0
 27 35  2  0
 11  6  1  0
 21 12  1  0
 35 23  1  0
 19 15  1  0
 34 29  1  0
M  END
