
     RDKit          3D

 35 38  0  0  0  0  0  0  0  0999 V2000
    5.3752   -6.2284   22.8253 C   0  0  0  0  0  0  0  0  0  0  0  0
    5.2391   -5.2799   21.7739 O   0  0  0  0  0  0  0  0  0  0  0  0
    6.0985   -4.2137   21.7789 C   0  0  0  0  0  0  0  0  0  0  0  0
    7.0903   -4.2764   22.7602 C   0  0  0  0  0  0  0  0  0  0  0  0
    8.0288   -3.2535   22.8854 C   0  0  0  0  0  0  0  0  0  0  0  0
    7.9769   -2.1607   22.0247 C   0  0  0  0  0  0  0  0  0  0  0  0
    6.9946   -2.0867   21.0340 C   0  0  0  0  0  0  0  0  0  0  0  0
    7.0511   -0.9532   20.2697 O   0  0  0  0  0  0  0  0  0  0  0  0
    6.0472   -0.7868   19.2629 C   0  0  0  0  0  0  0  0  0  0  0  0
    5.9968    0.6973   18.8818 C   0  0  1  0  0  0  0  0  0  0  0  0
    5.3351    0.8436   17.6105 O   0  0  0  0  0  0  0  0  0  0  0  0
    5.2491    1.5393   19.9215 C   0  0  0  0  0  0  0  0  0  0  0  0
    6.1843    2.1441   20.8557 N   0  0  0  0  0  0  0  0  0  0  0  0
    6.1515    1.8323   22.1990 C   0  0  0  0  0  0  0  0  0  0  0  0
    5.3544    1.0385   22.6855 O   0  0  0  0  0  0  0  0  0  0  0  0
    7.2084    2.5709   22.9938 C   0  0  0  0  0  0  0  0  0  0  0  0
    8.6153    2.0587   22.6793 C   0  0  0  0  0  0  0  0  0  0  0  0
    9.5263    1.9310   23.8211 N   0  0  0  0  0  0  0  0  0  0  0  0
    9.8863    3.1590   24.5144 C   0  0  0  0  0  0  0  0  0  0  0  0
   10.9701    4.0051   23.8918 C   0  0  0  0  0  0  0  0  0  0  0  0
   10.7219    5.3923   23.7785 C   0  0  0  0  0  0  0  0  0  0  0  0
   11.6591    6.2602   23.2175 C   0  0  0  0  0  0  0  0  0  0  0  0
   12.8722    5.7612   22.7651 C   0  0  0  0  0  0  0  0  0  0  0  0
   13.1420    4.4000   22.8855 C   0  0  0  0  0  0  0  0  0  0  0  0
   12.2102    3.5194   23.4564 C   0  0  0  0  0  0  0  0  0  0  0  0
   12.6605    2.2315   23.4799 O   0  0  0  0  0  0  0  0  0  0  0  0
   11.9611    1.2645   24.2691 C   0  0  2  0  0  0  0  0  0  0  0  0
   12.8266    0.0085   24.3066 C   0  0  0  0  0  0  0  0  0  0  0  0
   13.3054   -0.5129   25.5195 C   0  0  0  0  0  0  0  0  0  0  0  0
   14.1129   -1.6510   25.5362 C   0  0  0  0  0  0  0  0  0  0  0  0
   14.4543   -2.2820   24.3414 C   0  0  0  0  0  0  0  0  0  0  0  0
   13.9904   -1.7747   23.1291 C   0  0  0  0  0  0  0  0  0  0  0  0
   13.1823   -0.6362   23.1101 C   0  0  0  0  0  0  0  0  0  0  0  0
   10.5851    0.9299   23.6484 C   0  0  0  0  0  0  0  0  0  0  0  0
    6.0569   -3.1183   20.9100 C   0  0  0  0  0  0  0  0  0  0  0  0
  1  2  1  0
  2  3  1  0
  3  4  2  0
  4  5  1  0
  5  6  2  0
  6  7  1  0
  7  8  1  0
  8  9  1  0
  9 10  1  0
 10 11  1  6
 10 12  1  0
 12 13  1  0
 13 14  1  0
 14 15  2  0
 14 16  1  0
 16 17  1  0
 17 18  1  0
 18 19  1  0
 19 20  1  0
 20 21  2  0
 21 22  1  0
 22 23  2  0
 23 24  1  0
 24 25  2  0
 25 26  1  0
 26 27  1  0
 27 28  1  6
 28 29  2  0
 29 30  1  0
 30 31  2  0
 31 32  1  0
 32 33  2  0
 27 34  1  0
  7 35  2  0
 35  3  1  0
 34 18  1  0
 25 20  1  0
 33 28  1  0
M  END
