
     RDKit          3D

 34 39  0  0  0  0  0  0  0  0999 V2000
    6.2218   -6.2864   21.7701 C   0  0  0  0  0  0  0  0  0  0  0  0
    6.1065   -5.3767   22.8628 O   0  0  0  0  0  0  0  0  0  0  0  0
    5.5014   -5.8494   24.0002 C   0  0  0  0  0  0  0  0  0  0  0  0
    4.3915   -6.7015   24.0148 C   0  0  0  0  0  0  0  0  0  0  0  0
    3.8533   -7.1429   25.2259 C   0  0  0  0  0  0  0  0  0  0  0  0
    4.4146   -6.7335   26.4320 C   0  0  0  0  0  0  0  0  0  0  0  0
    5.5138   -5.8771   26.4290 C   0  0  0  0  0  0  0  0  0  0  0  0
    6.0603   -5.4193   25.2189 C   0  0  0  0  0  0  0  0  0  0  0  0
    7.2701   -4.5134   25.2583 C   0  0  0  0  0  0  0  0  0  0  0  0
    8.5318   -5.2351   24.7785 C   0  0  0  0  0  0  0  0  0  0  0  0
    9.7335   -4.4593   25.0568 N   0  0  0  0  0  0  0  0  0  0  0  0
   10.6727   -4.9488   25.9466 C   0  0  0  0  0  0  0  0  0  0  0  0
   11.7964   -4.3830   26.2510 N   0  0  0  0  0  0  0  0  0  0  0  0
   12.0116   -3.2015   25.6210 C   0  0  0  0  0  0  0  0  0  0  0  0
   13.4230   -2.2822   25.9019 S   0  0  0  0  0  0  0  0  0  0  0  0
   12.9019   -1.0499   24.8485 C   0  0  0  0  0  0  0  0  0  0  0  0
   11.6737   -1.3196   24.2770 C   0  0  0  0  0  0  0  0  0  0  0  0
   11.1747   -2.5901   24.7115 C   0  0  0  0  0  0  0  0  0  0  0  0
    9.9471   -3.2763   24.3505 C   0  0  0  0  0  0  0  0  0  0  0  0
    9.1791   -2.8454   23.4932 O   0  0  0  0  0  0  0  0  0  0  0  0
   11.0140   -0.3632   23.3310 C   0  0  0  0  0  0  0  0  0  0  0  0
   11.6261    1.0454   23.4216 C   0  0  0  0  0  0  0  0  0  0  0  0
   13.1717    0.9933   23.4052 C   0  0  1  0  0  0  0  0  0  0  0  0
   13.7821    2.3267   23.4308 N   0  0  0  0  0  0  0  0  0  0  0  0
   13.4009    3.1796   22.2997 C   0  0  0  0  0  0  0  0  0  0  0  0
   12.7680    4.4277   22.8529 C   0  0  0  0  0  0  0  0  0  0  0  0
   11.4150    4.6197   23.2328 C   0  0  0  0  0  0  0  0  0  0  0  0
   11.3401    5.9408   23.5887 C   0  0  0  0  0  0  0  0  0  0  0  0
   10.0952    6.7175   24.0690 C   0  0  0  0  0  0  0  0  0  0  0  0
    9.1746    7.3034   23.0277 C   0  0  0  0  0  0  0  0  0  0  0  0
    8.7252    6.1304   23.8514 C   0  0  0  0  0  0  0  0  0  0  0  0
   12.5962    6.4506   23.4497 N   0  0  0  0  0  0  0  0  0  0  0  0
   13.4922    5.5503   23.0093 N   0  0  0  0  0  0  0  0  0  0  0  0
   13.6970    0.2035   24.6368 C   0  0  0  0  0  0  0  0  0  0  0  0
  1  2  1  0
  2  3  1  0
  3  4  2  0
  4  5  1  0
  5  6  2  0
  6  7  1  0
  7  8  2  0
  8  9  1  0
  9 10  1  0
 10 11  1  0
 11 12  1  0
 12 13  2  0
 13 14  1  0
 14 15  1  0
 15 16  1  0
 16 17  2  0
 17 18  1  0
 18 19  1  0
 19 20  2  0
 17 21  1  0
 21 22  1  0
 22 23  1  0
 23 24  1  1
 24 25  1  0
 25 26  1  0
 26 27  1  0
 27 28  2  0
 28 29  1  0
 29 30  1  0
 30 31  1  0
 28 32  1  0
 32 33  1  0
 23 34  1  0
  8  3  1  0
 19 11  1  0
 33 26  2  0
 18 14  2  0
 31 29  1  0
 34 16  1  0
M  END
