
     RDKit          3D

 18 19  0  0  0  0  0  0  0  0999 V2000
   13.1709    3.7209   22.7257 C   0  0  0  0  0  0  0  0  0  0  0  0
   12.4533    3.4938   23.9409 O   0  0  0  0  0  0  0  0  0  0  0  0
   11.1439    3.1769   23.6793 C   0  0  0  0  0  0  0  0  0  0  0  0
   10.7808    1.8626   23.3586 C   0  0  0  0  0  0  0  0  0  0  0  0
   11.9524    0.5972   23.2521 Cl  0  0  0  0  0  0  0  0  0  0  0  0
    9.4405    1.5350   23.1300 C   0  0  0  0  0  0  0  0  0  0  0  0
    8.4450    2.5102   23.2481 C   0  0  0  0  0  0  0  0  0  0  0  0
    7.0492    2.1450   22.9934 C   0  0  0  0  0  0  0  0  0  0  0  0
    6.1473    1.8651   23.9378 C   0  0  0  0  0  0  0  0  0  0  0  0
    4.8362    1.5186   23.7867 N   0  0  0  0  0  0  0  0  0  0  0  0
    4.2544    1.3344   25.0292 C   0  0  0  0  0  0  0  0  0  0  0  0
    3.0929    1.0327   25.2366 O   0  0  0  0  0  0  0  0  0  0  0  0
    5.2175    1.5569   25.9785 N   0  0  0  0  0  0  0  0  0  0  0  0
    6.4112    1.8990   25.4097 C   0  0  0  0  0  0  0  0  0  0  0  0
    7.4575    2.1741   25.9626 O   0  0  0  0  0  0  0  0  0  0  0  0
    8.8036    3.8198   23.5881 C   0  0  0  0  0  0  0  0  0  0  0  0
   10.1442    4.1474   23.8168 C   0  0  0  0  0  0  0  0  0  0  0  0
   10.5452    5.9311   24.3301 Br  0  0  0  0  0  0  0  0  0  0  0  0
  1  2  1  0
  2  3  1  0
  3  4  2  0
  4  5  1  0
  4  6  1  0
  6  7  2  0
  7  8  1  0
  8  9  2  0
  9 10  1  0
 10 11  1  0
 11 12  2  0
 11 13  1  0
 13 14  1  0
 14 15  2  0
  7 16  1  0
 16 17  2  0
 17 18  1  0
 17  3  1  0
 14  9  1  0
M  END
