
     RDKit          3D

 24 25  0  0  0  0  0  0  0  0999 V2000
    5.9142   -5.1024   23.2958 C   0  0  0  0  0  0  0  0  0  0  0  0
    6.0803   -5.1299   21.7840 C   0  0  0  0  0  0  0  0  0  0  0  0
    5.8588   -3.7444   21.1735 C   0  0  0  0  0  0  0  0  0  0  0  0
    6.9216   -2.7263   21.5909 C   0  0  0  0  0  0  0  0  0  0  0  0
    6.8328   -1.4666   20.8759 N   0  0  0  0  0  0  0  0  0  0  0  0
    6.1402   -1.4452   19.7185 N   0  0  0  0  0  0  0  0  0  0  0  0
    6.2183   -0.1738   19.3146 C   0  0  0  0  0  0  0  0  0  0  0  0
    5.5693    0.2526   18.0529 C   0  0  0  0  0  0  0  0  0  0  0  0
    6.9631    0.6129   20.2189 C   0  0  0  0  0  0  0  0  0  0  0  0
    7.3555   -0.2408   21.2275 C   0  0  0  0  0  0  0  0  0  0  0  0
    8.1080   -0.0247   22.3706 N   0  0  0  0  0  0  0  0  0  0  0  0
    9.0517    0.9886   22.4788 C   0  0  0  0  0  0  0  0  0  0  0  0
    9.3460    1.8053   21.6137 O   0  0  0  0  0  0  0  0  0  0  0  0
    9.7128    0.9741   23.8479 C   0  0  0  0  0  0  0  0  0  0  0  0
   10.9560    1.8639   23.9029 C   0  0  0  0  0  0  0  0  0  0  0  0
   12.2155    1.1751   23.3309 C   0  0  1  0  0  0  0  0  0  0  0  0
   13.3174    2.2228   23.1144 C   0  0  0  0  0  0  0  0  0  0  0  0
   12.6059    0.0030   24.1392 N   0  0  0  0  0  0  0  0  0  0  0  0
   13.1645   -1.0911   23.3184 C   0  0  0  0  0  0  0  0  0  0  0  0
   13.4721   -2.3508   24.1626 C   0  0  0  0  0  0  0  0  0  0  0  0
   14.3933   -2.0617   25.2779 N   0  0  0  0  0  0  0  0  0  0  0  0
   14.6160   -3.2530   26.0925 C   0  0  0  0  0  0  0  0  0  0  0  0
   13.8422   -0.9630   26.0934 C   0  0  0  0  0  0  0  0  0  0  0  0
   13.5374    0.2969   25.2472 C   0  0  0  0  0  0  0  0  0  0  0  0
  1  2  1  0
  2  3  1  0
  3  4  1  0
  4  5  1  0
  5  6  1  0
  6  7  2  0
  7  8  1  0
  7  9  1  0
  9 10  2  0
 10 11  1  0
 11 12  1  0
 12 13  2  0
 12 14  1  0
 14 15  1  0
 15 16  1  0
 16 17  1  1
 16 18  1  0
 18 19  1  0
 19 20  1  0
 20 21  1  0
 21 22  1  0
 21 23  1  0
 23 24  1  0
 10  5  1  0
 24 18  1  0
M  END
