
     RDKit          3D

 28 30  0  0  0  0  0  0  0  0999 V2000
   11.7305    0.7002   27.3006 C   0  0  0  0  0  0  0  0  0  0  0  0
   12.5000    0.6648   26.1060 O   0  0  0  0  0  0  0  0  0  0  0  0
   11.8193    0.6587   24.9162 C   0  0  0  0  0  0  0  0  0  0  0  0
   10.8028    1.5509   24.5744 C   0  0  0  0  0  0  0  0  0  0  0  0
   10.1652    1.4584   23.3272 C   0  0  0  0  0  0  0  0  0  0  0  0
    9.0871    2.4415   23.0254 C   0  0  0  0  0  0  0  0  0  0  0  0
    8.7345    3.3054   23.8126 O   0  0  0  0  0  0  0  0  0  0  0  0
    8.5742    2.2087   21.7962 O   0  0  0  0  0  0  0  0  0  0  0  0
    7.1543    1.9555   21.7310 C   0  0  2  0  0  0  0  0  0  0  0  0
    6.8670    1.2024   20.4385 C   0  0  0  0  0  0  0  0  0  0  0  0
    7.6726    0.1057   20.0811 C   0  0  0  0  0  0  0  0  0  0  0  0
    7.4183   -0.6238   18.9201 C   0  0  0  0  0  0  0  0  0  0  0  0
    6.3488   -0.2751   18.1029 C   0  0  0  0  0  0  0  0  0  0  0  0
    5.5285    0.7963   18.4520 C   0  0  0  0  0  0  0  0  0  0  0  0
    5.7668    1.5316   19.6245 C   0  0  0  0  0  0  0  0  0  0  0  0
    4.8586    2.6899   19.9475 C   0  0  0  0  0  0  0  0  0  0  0  0
    4.9514    3.1485   21.4014 C   0  0  0  0  0  0  0  0  0  0  0  0
    6.4230    3.3371   21.8027 C   0  0  1  0  0  0  0  0  0  0  0  0
    6.6297    4.0290   23.1039 N   0  0  0  0  0  0  0  0  0  0  0  0
    6.2658    3.2351   24.2767 C   0  0  0  0  0  0  0  0  0  0  0  0
    5.9737    5.3351   23.1498 C   0  0  0  0  0  0  0  0  0  0  0  0
   10.5457    0.4630   22.4130 C   0  0  0  0  0  0  0  0  0  0  0  0
   11.5599   -0.4394   22.7381 C   0  0  0  0  0  0  0  0  0  0  0  0
   12.0035   -1.4458   21.9193 O   0  0  0  0  0  0  0  0  0  0  0  0
   13.3677   -1.4149   21.5216 C   0  0  0  0  0  0  0  0  0  0  0  0
   12.2023   -0.3208   23.9833 C   0  0  0  0  0  0  0  0  0  0  0  0
   13.1750   -1.2349   24.3272 O   0  0  0  0  0  0  0  0  0  0  0  0
   12.6087   -2.5426   24.3889 C   0  0  0  0  0  0  0  0  0  0  0  0
  1  2  1  0
  2  3  1  0
  3  4  2  0
  4  5  1  0
  5  6  1  0
  6  7  2  0
  6  8  1  0
  9  8  1  6
  9 10  1  0
 10 11  2  0
 11 12  1  0
 12 13  2  0
 13 14  1  0
 14 15  2  0
 15 16  1  0
 16 17  1  0
 17 18  1  0
 18 19  1  1
 19 20  1  0
 19 21  1  0
  5 22  2  0
 22 23  1  0
 23 24  1  0
 24 25  1  0
 23 26  2  0
 26 27  1  0
 27 28  1  0
 26  3  1  0
 18  9  1  0
 15 10  1  0
M  END
