
     RDKit          3D

 29 32  0  0  0  0  0  0  0  0999 V2000
    4.4015    6.2268   26.4360 C   0  0  0  0  0  0  0  0  0  0  0  0
    4.2773    4.8499   26.7919 O   0  0  0  0  0  0  0  0  0  0  0  0
    5.5058    4.3597   27.1494 C   0  0  0  0  0  0  0  0  0  0  0  0
    6.1949    4.9657   28.2009 C   0  0  0  0  0  0  0  0  0  0  0  0
    7.4471    4.4729   28.5833 C   0  0  0  0  0  0  0  0  0  0  0  0
    8.2021    5.1361   29.6484 C   0  0  0  0  0  0  0  0  0  0  0  0
    8.8102    6.3247   29.5172 C   0  0  0  0  0  0  0  0  0  0  0  0
    9.7042    7.0643   30.8474 S   0  0  0  0  0  0  0  0  0  0  0  0
   10.1194    8.3785   29.8285 C   0  0  0  0  0  0  0  0  0  0  0  0
   10.8248    9.4651   29.9575 N   0  0  0  0  0  0  0  0  0  0  0  0
   10.7015   10.0379   28.6923 C   0  0  0  0  0  0  0  0  0  0  0  0
   11.3484   11.3029   28.3495 C   0  0  0  0  0  0  0  0  0  0  0  0
   11.5125   12.3128   29.3130 C   0  0  0  0  0  0  0  0  0  0  0  0
   12.1292   13.5231   28.9791 C   0  0  0  0  0  0  0  0  0  0  0  0
   12.5860   13.7299   27.6778 C   0  0  0  0  0  0  0  0  0  0  0  0
   13.4200   15.3650   27.2238 Br  0  0  0  0  0  0  0  0  0  0  0  0
   12.4325   12.7393   26.7081 C   0  0  0  0  0  0  0  0  0  0  0  0
   11.8154   11.5297   27.0443 C   0  0  0  0  0  0  0  0  0  0  0  0
    9.9453    9.3255   27.8250 N   0  0  0  0  0  0  0  0  0  0  0  0
    9.6011    8.2745   28.5893 N   0  0  0  0  0  0  0  0  0  0  0  0
    8.8354    7.1715   28.2750 C   0  0  0  0  0  0  0  0  0  0  0  0
    8.3190    7.0029   27.1841 O   0  0  0  0  0  0  0  0  0  0  0  0
    7.9888    3.3605   27.9250 C   0  0  0  0  0  0  0  0  0  0  0  0
    7.2952    2.7647   26.8705 C   0  0  0  0  0  0  0  0  0  0  0  0
    7.8793    1.6849   26.2597 O   0  0  0  0  0  0  0  0  0  0  0  0
    9.2069    1.5022   26.7559 C   0  0  0  0  0  0  0  0  0  0  0  0
    6.0337    3.2383   26.5019 C   0  0  0  0  0  0  0  0  0  0  0  0
    5.3432    2.6703   25.4618 O   0  0  0  0  0  0  0  0  0  0  0  0
    6.1082    1.6064   24.8964 C   0  0  0  0  0  0  0  0  0  0  0  0
  1  2  1  0
  2  3  1  0
  3  4  2  0
  4  5  1  0
  5  6  1  0
  6  7  2  0
  7  8  1  0
  8  9  1  0
  9 10  2  0
 10 11  1  0
 11 12  1  0
 12 13  2  0
 13 14  1  0
 14 15  2  0
 15 16  1  0
 15 17  1  0
 17 18  2  0
 11 19  2  0
 19 20  1  0
 20 21  1  0
 21 22  2  0
  5 23  2  0
 23 24  1  0
 24 25  1  0
 25 26  1  0
 24 27  2  0
 27 28  1  0
 28 29  1  0
 27  3  1  0
 21  7  1  0
 20  9  1  0
 18 12  1  0
M  END
