
     RDKit          3D

 30 32  0  0  0  0  0  0  0  0999 V2000
   10.9797    0.2472   25.7383 C   0  0  0  0  0  0  0  0  0  0  0  0
    9.6301    0.6462   25.5411 O   0  0  0  0  0  0  0  0  0  0  0  0
    9.3505    1.9868   25.6116 C   0  0  0  0  0  0  0  0  0  0  0  0
    8.7002    2.6097   26.6811 C   0  0  0  0  0  0  0  0  0  0  0  0
    8.4517    3.9915   26.6660 C   0  0  0  0  0  0  0  0  0  0  0  0
    7.7887    4.6737   27.7807 C   0  0  0  0  0  0  0  0  0  0  0  0
    8.1558    4.5891   29.0540 N   0  0  0  0  0  0  0  0  0  0  0  0
    7.3022    5.3479   29.8135 N   0  0  0  0  0  0  0  0  0  0  0  0
    6.4525    5.9219   28.9955 C   0  0  0  0  0  0  0  0  0  0  0  0
    5.2087    7.0445   29.4246 S   0  0  0  0  0  0  0  0  0  0  0  0
    3.7433    6.2341   28.7183 C   0  0  0  0  0  0  0  0  0  0  0  0
    3.6977    4.7620   29.1036 C   0  0  0  0  0  0  0  0  0  0  0  0
    4.0444    4.3965   30.2249 O   0  0  0  0  0  0  0  0  0  0  0  0
    3.2460    3.9450   28.0824 N   0  0  0  0  0  0  0  0  0  0  0  0
    3.0827    2.5473   28.1004 C   0  0  0  0  0  0  0  0  0  0  0  0
    2.5044    1.9610   26.9658 C   0  0  0  0  0  0  0  0  0  0  0  0
    2.2998    0.5802   26.9010 C   0  0  0  0  0  0  0  0  0  0  0  0
    2.6659   -0.2201   27.9807 C   0  0  0  0  0  0  0  0  0  0  0  0
    2.3842   -2.0872   27.9038 Br  0  0  0  0  0  0  0  0  0  0  0  0
    3.2397    0.3486   29.1147 C   0  0  0  0  0  0  0  0  0  0  0  0
    3.4491    1.7312   29.1735 C   0  0  0  0  0  0  0  0  0  0  0  0
    6.7108    5.5398   27.7028 N   0  0  0  0  0  0  0  0  0  0  0  0
    6.0433    6.0100   26.5135 N   0  0  0  0  0  0  0  0  0  0  0  0
    8.8870    4.7544   25.5684 C   0  0  0  0  0  0  0  0  0  0  0  0
    9.5354    4.1534   24.4869 C   0  0  0  0  0  0  0  0  0  0  0  0
    9.9847    4.8159   23.3739 O   0  0  0  0  0  0  0  0  0  0  0  0
    9.4969    6.1324   23.1508 C   0  0  0  0  0  0  0  0  0  0  0  0
    9.7438    2.7646   24.5101 C   0  0  0  0  0  0  0  0  0  0  0  0
   10.4263    2.1737   23.4690 O   0  0  0  0  0  0  0  0  0  0  0  0
    9.5013    1.6750   22.5050 C   0  0  0  0  0  0  0  0  0  0  0  0
  1  2  1  0
  2  3  1  0
  3  4  2  0
  4  5  1  0
  5  6  1  0
  6  7  2  0
  7  8  1  0
  8  9  2  0
  9 10  1  0
 10 11  1  0
 11 12  1  0
 12 13  2  0
 12 14  1  0
 14 15  1  0
 15 16  2  0
 16 17  1  0
 17 18  2  0
 18 19  1  0
 18 20  1  0
 20 21  2  0
  9 22  1  0
 22 23  1  0
  5 24  2  0
 24 25  1  0
 25 26  1  0
 26 27  1  0
 25 28  2  0
 28 29  1  0
 29 30  1  0
 28  3  1  0
 22  6  1  0
 21 15  1  0
M  END
