
     RDKit          3D

 25 27  0  0  0  0  0  0  0  0999 V2000
   13.7815    3.5466   23.1252 C   0  0  0  0  0  0  0  0  0  0  0  0
   12.3546    3.1839   23.4352 C   0  0  0  0  0  0  0  0  0  0  0  0
   11.3308    4.0771   23.0790 C   0  0  0  0  0  0  0  0  0  0  0  0
    9.9955    3.7790   23.3483 C   0  0  0  0  0  0  0  0  0  0  0  0
    9.6637    2.5840   23.9775 C   0  0  0  0  0  0  0  0  0  0  0  0
   10.6676    1.6829   24.3301 C   0  0  0  0  0  0  0  0  0  0  0  0
   12.0186    1.9611   24.0543 C   0  0  0  0  0  0  0  0  0  0  0  0
   13.0648    0.9588   24.4746 C   0  0  0  0  0  0  0  0  0  0  0  0
   12.5809   -0.3872   24.3131 N   0  0  0  0  0  0  0  0  0  0  0  0
   13.0388   -1.4118   25.1103 C   0  0  0  0  0  0  0  0  0  0  0  0
   13.8396   -1.2564   26.0275 O   0  0  0  0  0  0  0  0  0  0  0  0
   12.4058   -2.7707   24.7864 C   0  0  0  0  0  0  0  0  0  0  0  0
   11.1545   -2.9765   25.5582 N   0  0  0  0  0  0  0  0  0  0  0  0
   10.8193   -4.4072   25.6070 C   0  0  0  0  0  0  0  0  0  0  0  0
    9.3500   -4.6252   25.9528 C   0  0  0  0  0  0  0  0  0  0  0  0
    8.4128   -4.0866   24.8398 C   0  0  0  0  0  0  0  0  0  0  0  0
    9.0949   -2.8936   24.1235 C   0  0  0  0  0  0  0  0  0  0  0  0
   10.0437   -2.1441   25.0592 C   0  0  0  0  0  0  0  0  0  0  0  0
    8.0757   -5.2322   23.8524 C   0  0  0  0  0  0  0  0  0  0  0  0
    6.8825   -4.9233   22.9385 C   0  0  2  0  0  0  0  0  0  0  0  0
    6.4852   -6.1610   22.1282 C   0  0  0  0  0  0  0  0  0  0  0  0
    7.2317   -3.8961   22.0085 O   0  0  0  0  0  0  0  0  0  0  0  0
    5.7003   -4.4380   23.7770 C   0  0  0  0  0  0  0  0  0  0  0  0
    6.1162   -3.3067   24.7020 C   0  0  0  0  0  0  0  0  0  0  0  0
    7.2144   -3.6833   25.5299 O   0  0  0  0  0  0  0  0  0  0  0  0
  1  2  1  0
  2  3  2  0
  3  4  1  0
  4  5  2  0
  5  6  1  0
  6  7  2  0
  7  8  1  0
  8  9  1  0
  9 10  1  0
 10 11  2  0
 10 12  1  0
 12 13  1  0
 13 14  1  0
 14 15  1  0
 15 16  1  0
 16 17  1  0
 17 18  1  0
 16 19  1  0
 19 20  1  0
 20 21  1  6
 20 22  1  0
 20 23  1  0
 23 24  1  0
 24 25  1  0
  7  2  1  0
 18 13  1  0
 25 16  1  0
M  END
