
     RDKit          3D

 24 25  0  0  0  0  0  0  0  0999 V2000
   11.0733   -3.7266   25.2199 C   0  0  0  0  0  0  0  0  0  0  0  0
   12.4809   -3.2695   25.2146 C   0  0  0  0  0  0  0  0  0  0  0  0
   13.3761   -3.7535   26.1403 N   0  0  0  0  0  0  0  0  0  0  0  0
   14.5237   -3.1810   25.8588 C   0  0  0  0  0  0  0  0  0  0  0  0
   14.4131   -2.3429   24.7907 N   0  0  0  0  0  0  0  0  0  0  0  0
   13.1027   -2.3648   24.3751 C   0  0  0  0  0  0  0  0  0  0  0  0
   12.6320   -1.5607   23.2225 C   0  0  0  0  0  0  0  0  0  0  0  0
   12.4057   -0.1728   23.6217 N   0  0  0  0  0  0  0  0  0  0  0  0
   11.1339    0.1399   24.2930 C   0  0  0  0  0  0  0  0  0  0  0  0
   11.2253    0.0796   25.8335 C   0  0  0  0  0  0  0  0  0  0  0  0
    9.9456    0.3865   26.5025 N   0  0  0  0  0  0  0  0  0  0  0  0
    8.9219   -0.5746   26.0771 C   0  0  0  0  0  0  0  0  0  0  0  0
    9.4907    1.7470   26.2048 C   0  0  0  0  0  0  0  0  0  0  0  0
   13.4670    0.7238   23.5211 C   0  0  0  0  0  0  0  0  0  0  0  0
   14.5740    0.3700   23.1069 O   0  0  0  0  0  0  0  0  0  0  0  0
   13.2066    2.1613   23.9422 C   0  0  0  0  0  0  0  0  0  0  0  0
   12.5572    2.9691   22.8187 C   0  0  0  0  0  0  0  0  0  0  0  0
   12.2649    4.3845   23.2517 C   0  0  0  0  0  0  0  0  0  0  0  0
   13.1239    5.4326   22.8886 C   0  0  0  0  0  0  0  0  0  0  0  0
   12.8444    6.7468   23.2734 C   0  0  0  0  0  0  0  0  0  0  0  0
   11.7017    7.0251   24.0206 C   0  0  0  0  0  0  0  0  0  0  0  0
   10.8481    5.9879   24.3761 C   0  0  0  0  0  0  0  0  0  0  0  0
    9.7481    6.2553   25.0925 F   0  0  0  0  0  0  0  0  0  0  0  0
   11.1163    4.6758   23.9991 C   0  0  0  0  0  0  0  0  0  0  0  0
  1  2  1  0
  2  3  1  0
  3  4  2  0
  4  5  1  0
  5  6  1  0
  6  7  1  0
  7  8  1  0
  8  9  1  0
  9 10  1  0
 10 11  1  0
 11 12  1  0
 11 13  1  0
  8 14  1  0
 14 15  2  0
 14 16  1  0
 16 17  1  0
 17 18  1  0
 18 19  2  0
 19 20  1  0
 20 21  2  0
 21 22  1  0
 22 23  1  0
 22 24  2  0
  6  2  2  0
 24 18  1  0
M  END
