
     RDKit          3D

 24 26  0  0  0  0  0  0  0  0999 V2000
    5.0940    0.5796   18.4321 C   0  0  0  0  0  0  0  0  0  0  0  0
    5.9424    1.0566   19.4902 N   0  0  0  0  0  0  0  0  0  0  0  0
    7.0980    0.3962   19.8542 C   0  0  0  0  0  0  0  0  0  0  0  0
    7.4776   -0.6287   19.2945 O   0  0  0  0  0  0  0  0  0  0  0  0
    7.8185    1.0293   20.9403 C   0  0  0  0  0  0  0  0  0  0  0  0
    7.5937    2.2188   21.6062 C   0  0  0  0  0  0  0  0  0  0  0  0
    8.6105    2.3413   22.5823 C   0  0  0  0  0  0  0  0  0  0  0  0
    9.3998    1.2169   22.4649 C   0  0  0  0  0  0  0  0  0  0  0  0
   10.6259    0.7500   23.1782 C   0  0  0  0  0  0  0  0  0  0  0  0
   11.0663   -0.5661   22.7205 N   0  0  0  0  0  0  0  0  0  0  0  0
   11.4872   -1.4328   23.7485 C   0  0  0  0  0  0  0  0  0  0  0  0
   10.6017   -2.3005   24.2657 N   0  0  0  0  0  0  0  0  0  0  0  0
   10.9998   -3.1312   25.2377 C   0  0  0  0  0  0  0  0  0  0  0  0
   10.0979   -4.0325   25.7441 N   0  0  0  0  0  0  0  0  0  0  0  0
   10.5627   -5.2066   26.4640 C   0  0  0  0  0  0  0  0  0  0  0  0
    9.5070   -6.2719   26.1558 C   0  0  0  0  0  0  0  0  0  0  0  0
    8.2671   -5.4630   25.8026 C   0  0  0  0  0  0  0  0  0  0  0  0
    8.8504   -4.2744   25.0439 C   0  0  0  0  0  0  0  0  0  0  0  0
   12.2508   -3.1398   25.7126 N   0  0  0  0  0  0  0  0  0  0  0  0
   13.1335   -2.2545   25.2083 C   0  0  0  0  0  0  0  0  0  0  0  0
   14.5136   -2.3216   25.7945 C   0  0  0  0  0  0  0  0  0  0  0  0
   12.7910   -1.3393   24.2238 C   0  0  0  0  0  0  0  0  0  0  0  0
   13.7737   -0.3560   23.6631 C   0  0  0  0  0  0  0  0  0  0  0  0
    8.9284    0.4153   21.4649 O   0  0  0  0  0  0  0  0  0  0  0  0
  1  2  1  0
  2  3  1  0
  3  4  2  0
  3  5  1  0
  5  6  2  0
  6  7  1  0
  7  8  2  0
  8  9  1  0
  9 10  1  0
 10 11  1  0
 11 12  2  0
 12 13  1  0
 13 14  1  0
 14 15  1  0
 15 16  1  0
 16 17  1  0
 17 18  1  0
 13 19  2  0
 19 20  1  0
 20 21  1  0
 20 22  2  0
 22 23  1  0
  8 24  1  0
 24  5  1  0
 22 11  1  0
 18 14  1  0
M  END
