
     RDKit          3D

 24 26  0  0  0  0  0  0  0  0999 V2000
    9.6360   -4.4023   24.8251 C   0  0  0  0  0  0  0  0  0  0  0  0
    8.9723   -3.4556   23.9325 N   0  0  0  0  0  0  0  0  0  0  0  0
    7.9461   -3.9565   23.1215 C   0  0  0  0  0  0  0  0  0  0  0  0
    7.4647   -5.0767   23.2969 O   0  0  0  0  0  0  0  0  0  0  0  0
    7.4531   -3.0589   21.9915 C   0  0  0  0  0  0  0  0  0  0  0  0
    6.3925   -2.0456   22.4317 C   0  0  0  0  0  0  0  0  0  0  0  0
    6.1244   -0.9878   21.3859 C   0  0  0  0  0  0  0  0  0  0  0  0
    5.7888    0.3213   21.7607 C   0  0  0  0  0  0  0  0  0  0  0  0
    5.5560    1.3033   20.7937 C   0  0  0  0  0  0  0  0  0  0  0  0
    5.6586    0.9862   19.4410 C   0  0  0  0  0  0  0  0  0  0  0  0
    5.9940   -0.3093   19.0680 C   0  0  0  0  0  0  0  0  0  0  0  0
    6.0973   -0.6155   17.7678 F   0  0  0  0  0  0  0  0  0  0  0  0
    6.2282   -1.2947   20.0225 C   0  0  0  0  0  0  0  0  0  0  0  0
    9.5806   -2.1317   23.7453 C   0  0  2  0  0  0  0  0  0  0  0  0
   10.7473   -2.1386   22.7559 C   0  0  0  0  0  0  0  0  0  0  0  0
   11.3968   -0.7598   22.9487 C   0  0  2  0  0  0  0  0  0  0  0  0
   12.8878   -0.7511   22.6244 C   0  0  0  0  0  0  0  0  0  0  0  0
   13.7302   -1.3872   23.7147 C   0  0  0  0  0  0  0  0  0  0  0  0
   14.7077   -2.0792   23.4444 O   0  0  0  0  0  0  0  0  0  0  0  0
   13.3332   -1.0772   25.0093 N   0  0  0  0  0  0  0  0  0  0  0  0
   14.1825   -1.4520   26.1243 C   0  0  0  0  0  0  0  0  0  0  0  0
   12.3194   -0.0587   25.2308 C   0  0  0  0  0  0  0  0  0  0  0  0
   11.0708   -0.3422   24.3995 C   0  0  2  0  0  0  0  0  0  0  0  0
   10.2227   -1.4894   24.9773 C   0  0  0  0  0  0  0  0  0  0  0  0
  1  2  1  0
  2  3  1  0
  3  4  2  0
  3  5  1  0
  5  6  1  0
  6  7  1  0
  7  8  2  0
  8  9  1  0
  9 10  2  0
 10 11  1  0
 11 12  1  0
 11 13  2  0
 14  2  1  1
 14 15  1  0
 16 15  1  1
 16 17  1  0
 17 18  1  0
 18 19  2  0
 18 20  1  0
 20 21  1  0
 20 22  1  0
 23 22  1  1
 23 24  1  0
 13  7  1  0
 24 14  1  0
 23 16  1  0
M  END
