
     RDKit          3D

 26 29  0  0  0  0  0  0  0  0999 V2000
   13.2214    2.1009   24.3971 O   0  0  0  0  0  0  0  0  0  0  0  0
   12.2246    2.5049   23.8028 C   0  0  0  0  0  0  0  0  0  0  0  0
   11.2676    1.6600   23.2872 N   0  0  0  0  0  0  0  0  0  0  0  0
   11.3688    0.2205   23.4539 C   0  0  2  0  0  0  0  0  0  0  0  0
   12.7001   -0.3586   22.9708 C   0  0  0  0  0  0  0  0  0  0  0  0
   12.4304   -1.6594   22.4185 O   0  0  0  0  0  0  0  0  0  0  0  0
   11.0275   -1.9147   22.5430 C   0  0  0  0  0  0  0  0  0  0  0  0
   10.3580   -0.5536   22.6172 C   0  0  1  0  0  0  0  0  0  0  0  0
    8.9421   -0.6346   23.1972 C   0  0  0  0  0  0  0  0  0  0  0  0
    8.0383   -1.5866   22.4405 C   0  0  0  0  0  0  0  0  0  0  0  0
    7.8494   -2.8712   22.9647 C   0  0  0  0  0  0  0  0  0  0  0  0
    6.9782   -3.7292   22.3253 C   0  0  0  0  0  0  0  0  0  0  0  0
    6.2841   -3.4002   21.2186 N   0  0  0  0  0  0  0  0  0  0  0  0
    6.4767   -2.1831   20.6867 C   0  0  0  0  0  0  0  0  0  0  0  0
    5.7730   -1.8593   19.5349 C   0  0  0  0  0  0  0  0  0  0  0  0
    5.9011   -0.6152   18.9161 C   0  0  0  0  0  0  0  0  0  0  0  0
    6.7554    0.3337   19.4567 C   0  0  0  0  0  0  0  0  0  0  0  0
    7.4739    0.0339   20.6139 C   0  0  0  0  0  0  0  0  0  0  0  0
    7.3476   -1.2223   21.2545 C   0  0  0  0  0  0  0  0  0  0  0  0
   12.0478    3.9655   23.5889 C   0  0  0  0  0  0  0  0  0  0  0  0
   10.7854    4.5301   23.3847 C   0  0  0  0  0  0  0  0  0  0  0  0
   10.7008    5.8998   23.1968 C   0  0  0  0  0  0  0  0  0  0  0  0
   11.7685    6.7243   23.1941 N   0  0  0  0  0  0  0  0  0  0  0  0
   12.9779    6.1580   23.4130 C   0  0  0  0  0  0  0  0  0  0  0  0
   13.1670    4.8028   23.6243 C   0  0  0  0  0  0  0  0  0  0  0  0
   14.4399    4.3617   23.8574 O   0  0  0  0  0  0  0  0  0  0  0  0
  1  2  2  0
  2  3  1  0
  4  3  1  6
  4  5  1  0
  5  6  1  0
  6  7  1  0
  7  8  1  0
  8  9  1  1
  9 10  1  0
 10 11  2  0
 11 12  1  0
 12 13  2  0
 13 14  1  0
 14 15  2  0
 15 16  1  0
 16 17  2  0
 17 18  1  0
 18 19  2  0
  2 20  1  0
 20 21  2  0
 21 22  1  0
 22 23  2  0
 23 24  1  0
 24 25  2  0
 25 26  1  0
  8  4  1  0
 19 10  1  0
 25 20  1  0
 19 14  1  0
M  END
