
     RDKit          3D

 24 26  0  0  0  0  0  0  0  0999 V2000
    6.0499    0.4437   18.1203 C   0  0  0  0  0  0  0  0  0  0  0  0
    5.3767    1.1271   19.2574 C   0  0  0  0  0  0  0  0  0  0  0  0
    4.0579    1.5260   19.1011 N   0  0  0  0  0  0  0  0  0  0  0  0
    3.6145    2.0743   20.2121 C   0  0  0  0  0  0  0  0  0  0  0  0
    2.2230    2.6227   20.3953 C   0  0  0  0  0  0  0  0  0  0  0  0
    2.1367    3.4261   21.6934 C   0  0  0  0  0  0  0  0  0  0  0  0
    1.8221    3.4875   19.1992 C   0  0  0  0  0  0  0  0  0  0  0  0
    4.7490    2.1353   21.5000 S   0  0  0  0  0  0  0  0  0  0  0  0
    5.9392    1.4385   20.4848 C   0  0  0  0  0  0  0  0  0  0  0  0
    7.2770    1.1321   20.9496 C   0  0  0  0  0  0  0  0  0  0  0  0
    8.1525    1.9986   21.0026 O   0  0  0  0  0  0  0  0  0  0  0  0
    7.5547   -0.1549   21.3954 N   0  0  0  0  0  0  0  0  0  0  0  0
    8.7491   -0.4146   22.1713 C   0  0  0  0  0  0  0  0  0  0  0  0
    8.7398   -1.9183   22.4539 C   0  0  1  0  0  0  0  0  0  0  0  0
    9.5069   -2.2213   23.7513 C   0  0  0  0  0  0  0  0  0  0  0  0
   11.0048   -2.0479   23.7077 C   0  0  0  0  0  0  0  0  0  0  0  0
   11.8209   -2.9005   24.4509 C   0  0  0  0  0  0  0  0  0  0  0  0
   13.1728   -2.8310   24.4381 N   0  0  0  0  0  0  0  0  0  0  0  0
   13.6930   -1.8726   23.6423 C   0  0  0  0  0  0  0  0  0  0  0  0
   12.8972   -1.0288   22.8889 C   0  0  0  0  0  0  0  0  0  0  0  0
   11.5421   -1.1007   22.8979 N   0  0  0  0  0  0  0  0  0  0  0  0
    7.2338   -2.2294   22.5057 C   0  0  2  0  0  0  0  0  0  0  0  0
    6.9425   -3.5729   22.1579 O   0  0  0  0  0  0  0  0  0  0  0  0
    6.6374   -1.2825   21.4586 C   0  0  0  0  0  0  0  0  0  0  0  0
  1  2  1  0
  2  3  1  0
  3  4  2  0
  4  5  1  0
  5  6  1  0
  5  7  1  0
  4  8  1  0
  8  9  1  0
  9 10  1  0
 10 11  2  0
 10 12  1  0
 12 13  1  0
 13 14  1  0
 14 15  1  1
 15 16  1  0
 16 17  2  0
 17 18  1  0
 18 19  2  0
 19 20  1  0
 20 21  2  0
 14 22  1  0
 22 23  1  6
 22 24  1  0
  9  2  2  0
 24 12  1  0
 21 16  1  0
M  END
