
     RDKit          3D

 25 27  0  0  0  0  0  0  0  0999 V2000
    4.6078    1.2693   18.9692 C   0  0  0  0  0  0  0  0  0  0  0  0
    5.8201    0.5143   18.4537 C   0  0  0  0  0  0  0  0  0  0  0  0
    6.9194    0.8081   19.3114 O   0  0  0  0  0  0  0  0  0  0  0  0
    7.0566    0.0688   20.4600 C   0  0  0  0  0  0  0  0  0  0  0  0
    7.0504   -1.3305   20.5040 C   0  0  0  0  0  0  0  0  0  0  0  0
    7.2068   -1.9976   21.7204 C   0  0  0  0  0  0  0  0  0  0  0  0
    7.3838   -1.2631   22.8949 C   0  0  0  0  0  0  0  0  0  0  0  0
    7.5394   -1.9497   24.1971 C   0  0  0  0  0  0  0  0  0  0  0  0
    6.5140   -2.3270   24.7606 O   0  0  0  0  0  0  0  0  0  0  0  0
    8.8252   -2.1590   24.7106 N   0  0  0  0  0  0  0  0  0  0  0  0
    9.1023   -3.0781   25.8131 C   0  0  0  0  0  0  0  0  0  0  0  0
    9.9443   -1.6721   23.9027 C   0  0  1  0  0  0  0  0  0  0  0  0
   10.4045   -0.2398   24.1698 C   0  0  0  0  0  0  0  0  0  0  0  0
   11.7706   -0.1555   23.4667 C   0  0  1  0  0  0  0  0  0  0  0  0
   12.7225    0.8221   24.1482 C   0  0  0  0  0  0  0  0  0  0  0  0
   13.2650    0.2481   25.3542 N   0  0  0  0  0  0  0  0  0  0  0  0
   13.8301   -0.9991   25.3665 C   0  0  0  0  0  0  0  0  0  0  0  0
   14.4391   -1.4136   26.3458 O   0  0  0  0  0  0  0  0  0  0  0  0
   13.6903   -1.7814   24.0774 C   0  0  0  0  0  0  0  0  0  0  0  0
   12.3127   -1.6066   23.4344 C   0  0  1  0  0  0  0  0  0  0  0  0
   11.2329   -2.4702   24.1041 C   0  0  0  0  0  0  0  0  0  0  0  0
    7.3567    0.1345   22.8709 C   0  0  0  0  0  0  0  0  0  0  0  0
    7.2007    0.8074   21.6556 C   0  0  0  0  0  0  0  0  0  0  0  0
    7.1858    2.1744   21.5252 O   0  0  0  0  0  0  0  0  0  0  0  0
    8.2381    2.9036   22.1409 C   0  0  0  0  0  0  0  0  0  0  0  0
  1  2  1  0
  2  3  1  0
  3  4  1  0
  4  5  2  0
  5  6  1  0
  6  7  2  0
  7  8  1  0
  8  9  2  0
  8 10  1  0
 10 11  1  0
 12 10  1  1
 12 13  1  0
 14 13  1  1
 14 15  1  0
 15 16  1  0
 16 17  1  0
 17 18  2  0
 17 19  1  0
 20 19  1  1
 20 21  1  0
  7 22  1  0
 22 23  2  0
 23 24  1  0
 24 25  1  0
 23  4  1  0
 21 12  1  0
 20 14  1  0
M  END
