
     RDKit          3D

 26 30  0  0  0  0  0  0  0  0999 V2000
    5.3788   -0.3101   18.4316 C   0  0  0  0  0  0  0  0  0  0  0  0
    5.8769   -0.5977   19.8135 C   0  0  0  0  0  0  0  0  0  0  0  0
    6.0649   -1.8969   20.1498 N   0  0  0  0  0  0  0  0  0  0  0  0
    6.5419   -2.1491   21.3847 C   0  0  0  0  0  0  0  0  0  0  0  0
    6.8195   -1.1462   22.2665 C   0  0  0  0  0  0  0  0  0  0  0  0
    6.6033    0.1429   21.8282 C   0  0  0  0  0  0  0  0  0  0  0  0
    6.1496    0.4585   20.6088 N   0  0  0  0  0  0  0  0  0  0  0  0
    7.0141    1.1537   22.8814 C   0  0  2  0  0  0  0  0  0  0  0  0
    7.0583    0.2261   24.1338 C   0  0  0  0  0  0  0  0  0  0  0  0
    7.3935   -1.1892   23.6349 C   0  0  0  0  0  0  0  0  0  0  0  0
    5.9931    2.2873   23.0436 C   0  0  0  0  0  0  0  0  0  0  0  0
    6.4745    3.3050   24.0720 C   0  0  0  0  0  0  0  0  0  0  0  0
    7.8587    3.8481   23.7192 C   0  0  0  0  0  0  0  0  0  0  0  0
    8.8145    2.7468   23.5076 N   0  0  0  0  0  0  0  0  0  0  0  0
   10.1478    3.1926   23.5076 C   0  0  0  0  0  0  0  0  0  0  0  0
   11.1139    2.2346   23.6452 N   0  0  0  0  0  0  0  0  0  0  0  0
   12.4262    2.5484   23.6214 C   0  0  0  0  0  0  0  0  0  0  0  0
   13.3923    1.4104   23.7443 C   0  0  0  0  0  0  0  0  0  0  0  0
   12.9448    3.7734   23.4571 N   0  0  0  0  0  0  0  0  0  0  0  0
   11.9914    4.7091   23.3316 C   0  0  0  0  0  0  0  0  0  0  0  0
   10.6173    4.5153   23.3452 C   0  0  0  0  0  0  0  0  0  0  0  0
   10.1048    5.8276   23.1996 C   0  0  0  0  0  0  0  0  0  0  0  0
   11.0518    6.7645   23.0811 N   0  0  0  0  0  0  0  0  0  0  0  0
   12.1943    6.0516   23.1637 N   0  0  0  0  0  0  0  0  0  0  0  0
   13.4611    6.7338   23.0803 C   0  0  0  0  0  0  0  0  0  0  0  0
    8.4027    1.7295   22.5334 C   0  0  0  0  0  0  0  0  0  0  0  0
  1  2  1  0
  2  3  2  0
  3  4  1  0
  4  5  2  0
  5  6  1  0
  6  7  2  0
  6  8  1  0
  8  9  1  1
  9 10  1  0
  8 11  1  0
 11 12  1  0
 12 13  1  0
 13 14  1  0
 14 15  1  0
 15 16  2  0
 16 17  1  0
 17 18  1  0
 17 19  2  0
 19 20  1  0
 20 21  2  0
 21 22  1  0
 22 23  2  0
 23 24  1  0
 24 25  1  0
 14 26  1  0
  7  2  1  0
 26  8  1  0
 10  5  1  0
 21 15  1  0
 24 20  1  0
M  END
