
     RDKit          3D

 24 27  0  0  0  0  0  0  0  0999 V2000
   13.9265   -2.9514   25.8315 C   0  0  0  0  0  0  0  0  0  0  0  0
   13.3500   -2.0882   24.7517 C   0  0  0  0  0  0  0  0  0  0  0  0
   12.2159   -1.3815   24.9020 C   0  0  0  0  0  0  0  0  0  0  0  0
   11.6420   -0.4591   23.8392 C   0  0  0  0  0  0  0  0  0  0  0  0
   10.2954   -1.0021   23.3311 C   0  0  0  0  0  0  0  0  0  0  0  0
    9.6288   -0.0302   22.3621 C   0  0  0  0  0  0  0  0  0  0  0  0
    9.4895    1.3004   22.9447 N   0  0  0  0  0  0  0  0  0  0  0  0
    8.4280    2.1006   22.4814 C   0  0  0  0  0  0  0  0  0  0  0  0
    8.2774    3.2453   22.9168 O   0  0  0  0  0  0  0  0  0  0  0  0
    7.5398    1.5655   21.4612 C   0  0  0  0  0  0  0  0  0  0  0  0
    7.9456    1.0161   20.3287 N   0  0  0  0  0  0  0  0  0  0  0  0
    6.8457    0.7138   19.5668 N   0  0  0  0  0  0  0  0  0  0  0  0
    5.7785    1.1043   20.2268 C   0  0  0  0  0  0  0  0  0  0  0  0
    6.1675    1.6217   21.4349 N   0  0  0  0  0  0  0  0  0  0  0  0
    5.2652    2.1086   22.4536 C   0  0  0  0  0  0  0  0  0  0  0  0
    4.4665    3.3272   21.9990 C   0  0  0  0  0  0  0  0  0  0  0  0
    3.3064    2.9849   21.0591 C   0  0  0  0  0  0  0  0  0  0  0  0
    3.7143    2.4174   19.6960 C   0  0  0  0  0  0  0  0  0  0  0  0
    4.3688    1.0371   19.7634 C   0  0  0  0  0  0  0  0  0  0  0  0
   10.7364    1.8754   23.4580 C   0  0  0  0  0  0  0  0  0  0  0  0
   11.4221    0.9375   24.4470 C   0  0  0  0  0  0  0  0  0  0  0  0
   12.5614   -0.2853   22.7403 O   0  0  0  0  0  0  0  0  0  0  0  0
   13.2209   -1.4830   22.3317 C   0  0  0  0  0  0  0  0  0  0  0  0
   14.1057   -2.0202   23.4531 C   0  0  0  0  0  0  0  0  0  0  0  0
  1  2  1  0
  2  3  2  0
  3  4  1  0
  4  5  1  0
  5  6  1  0
  6  7  1  0
  7  8  1  0
  8  9  2  0
  8 10  1  0
 10 11  2  0
 11 12  1  0
 12 13  2  0
 13 14  1  0
 14 15  1  0
 15 16  1  0
 16 17  1  0
 17 18  1  0
 18 19  1  0
  7 20  1  0
 20 21  1  0
  4 22  1  0
 22 23  1  0
 23 24  1  0
 24  2  1  0
 21  4  1  0
 14 10  1  0
 19 13  1  0
M  END
