
     RDKit          3D

 23 24  0  0  0  0  0  0  0  0999 V2000
   13.1981    2.9698   23.3192 C   0  0  0  0  0  0  0  0  0  0  0  0
   12.5650    1.5852   23.3612 C   0  0  0  0  0  0  0  0  0  0  0  0
   13.4416    0.6020   24.1454 C   0  0  0  0  0  0  0  0  0  0  0  0
   12.9847   -0.8821   24.1314 C   0  0  2  0  0  0  0  0  0  0  0  0
   14.0193   -1.6099   23.2676 C   0  0  0  0  0  0  0  0  0  0  0  0
   14.7447   -2.5266   23.6216 O   0  0  0  0  0  0  0  0  0  0  0  0
   14.0518   -1.2074   21.9797 O   0  0  0  0  0  0  0  0  0  0  0  0
   11.6042   -1.0512   23.4483 C   0  0  0  0  0  0  0  0  0  0  0  0
   11.1323   -2.5144   23.4633 C   0  0  0  0  0  0  0  0  0  0  0  0
   11.0846   -3.1160   24.8038 N   0  0  0  0  0  0  0  0  0  0  0  0
    9.9493   -2.6538   25.6249 C   0  0  0  0  0  0  0  0  0  0  0  0
    9.3114   -3.7595   26.4229 C   0  0  0  0  0  0  0  0  0  0  0  0
    7.9924   -3.8698   26.8163 C   0  0  0  0  0  0  0  0  0  0  0  0
    7.7121   -5.0848   27.5290 C   0  0  0  0  0  0  0  0  0  0  0  0
    6.3561   -5.4849   28.0446 C   0  0  0  0  0  0  0  0  0  0  0  0
    5.7185   -6.4472   27.1294 N   0  0  0  0  0  0  0  0  0  0  0  0
    5.4902   -5.8244   25.8245 C   0  0  0  0  0  0  0  0  0  0  0  0
    4.4477   -6.9479   27.6666 C   0  0  0  0  0  0  0  0  0  0  0  0
    8.8665   -5.8311   27.6799 C   0  0  0  0  0  0  0  0  0  0  0  0
   10.2360   -5.0925   26.9719 S   0  0  0  0  0  0  0  0  0  0  0  0
   12.3650   -2.9492   25.5089 C   0  0  0  0  0  0  0  0  0  0  0  0
   12.8763   -1.4930   25.5512 C   0  0  1  0  0  0  0  0  0  0  0  0
   14.0942   -1.4019   26.2907 O   0  0  0  0  0  0  0  0  0  0  0  0
  1  2  1  0
  2  3  1  0
  4  3  1  1
  4  5  1  0
  5  6  2  0
  5  7  1  0
  4  8  1  0
  8  9  1  0
  9 10  1  0
 10 11  1  0
 11 12  1  0
 12 13  2  0
 13 14  1  0
 14 15  1  0
 15 16  1  0
 16 17  1  0
 16 18  1  0
 14 19  2  0
 19 20  1  0
 10 21  1  0
 21 22  1  0
 22 23  1  6
 22  4  1  0
 20 12  1  0
M  END
