
     RDKit          3D

 24 25  0  0  0  0  0  0  0  0999 V2000
    3.1353   -6.6765   23.8869 C   0  0  0  0  0  0  0  0  0  0  0  0
    3.7052   -5.3753   23.3409 C   0  0  0  0  0  0  0  0  0  0  0  0
    5.0630   -5.0524   23.9808 C   0  0  0  0  0  0  0  0  0  0  0  0
    6.1887   -4.6619   22.9727 C   0  0  2  0  0  0  0  0  0  0  0  0
    6.5471   -5.8642   22.1073 C   0  0  0  0  0  0  0  0  0  0  0  0
    7.5413   -6.5653   22.2164 O   0  0  0  0  0  0  0  0  0  0  0  0
    5.6439   -6.1257   21.1416 O   0  0  0  0  0  0  0  0  0  0  0  0
    7.4398   -4.2092   23.7760 C   0  0  0  0  0  0  0  0  0  0  0  0
    8.2795   -3.1788   23.0305 C   0  0  0  0  0  0  0  0  0  0  0  0
    7.5096   -1.9733   22.6974 N   0  0  0  0  0  0  0  0  0  0  0  0
    8.2384   -0.8163   22.4198 C   0  0  0  0  0  0  0  0  0  0  0  0
    9.4749   -0.8575   22.4647 O   0  0  0  0  0  0  0  0  0  0  0  0
    7.5228    0.5233   22.0536 C   0  0  0  0  0  0  0  0  0  0  0  0
    6.7326    1.0129   23.2876 C   0  0  0  0  0  0  0  0  0  0  0  0
    8.6111    1.5991   21.7885 C   0  0  0  0  0  0  0  0  0  0  0  0
    6.7107    0.4137   20.7520 C   0  0  0  0  0  0  0  0  0  0  0  0
    7.1038   -0.4214   19.6918 C   0  0  0  0  0  0  0  0  0  0  0  0
    6.3469   -0.4999   18.5194 C   0  0  0  0  0  0  0  0  0  0  0  0
    5.1777    0.2434   18.3887 C   0  0  0  0  0  0  0  0  0  0  0  0
    4.7565    1.0583   19.4343 C   0  0  0  0  0  0  0  0  0  0  0  0
    5.5103    1.1368   20.6070 C   0  0  0  0  0  0  0  0  0  0  0  0
    6.0483   -2.1347   22.6167 C   0  0  0  0  0  0  0  0  0  0  0  0
    5.6782   -3.5169   22.0502 C   0  0  1  0  0  0  0  0  0  0  0  0
    6.2098   -3.6113   20.7201 O   0  0  0  0  0  0  0  0  0  0  0  0
  1  2  1  0
  2  3  1  0
  4  3  1  1
  4  5  1  0
  5  6  2  0
  5  7  1  0
  4  8  1  0
  8  9  1  0
  9 10  1  0
 10 11  1  0
 11 12  2  0
 11 13  1  0
 13 14  1  0
 13 15  1  0
 13 16  1  0
 16 17  2  0
 17 18  1  0
 18 19  2  0
 19 20  1  0
 20 21  2  0
 10 22  1  0
 22 23  1  0
 23 24  1  6
 23  4  1  0
 21 16  1  0
M  END
