
     RDKit          3D

 25 28  0  0  0  0  0  0  0  0999 V2000
    3.8731    1.7811   19.5806 C   0  0  0  0  0  0  0  0  0  0  0  0
    5.0375    0.8870   19.7392 C   0  0  0  0  0  0  0  0  0  0  0  0
    5.2761    0.0378   20.7145 N   0  0  0  0  0  0  0  0  0  0  0  0
    6.4732   -0.5309   20.3587 C   0  0  0  0  0  0  0  0  0  0  0  0
    7.1333   -1.5669   21.2068 C   0  0  0  0  0  0  0  0  0  0  0  0
    6.3148   -1.8663   22.4693 C   0  0  0  0  0  0  0  0  0  0  0  0
    7.0061   -2.9317   23.3165 C   0  0  0  0  0  0  0  0  0  0  0  0
    8.3663   -2.4791   23.6425 N   0  0  0  0  0  0  0  0  0  0  0  0
    9.0097   -3.2971   24.5966 C   0  0  0  0  0  0  0  0  0  0  0  0
    8.4748   -4.5195   24.8562 N   0  0  0  0  0  0  0  0  0  0  0  0
    9.1020   -5.3325   25.7374 C   0  0  0  0  0  0  0  0  0  0  0  0
   10.2613   -4.9966   26.4089 C   0  0  0  0  0  0  0  0  0  0  0  0
   10.8024   -3.7419   26.1723 C   0  0  0  0  0  0  0  0  0  0  0  0
   10.1644   -2.8755   25.2753 C   0  0  0  0  0  0  0  0  0  0  0  0
   10.7769   -1.5461   25.0920 C   0  0  0  0  0  0  0  0  0  0  0  0
   10.1037   -0.5584   25.3832 O   0  0  0  0  0  0  0  0  0  0  0  0
   12.0404   -1.4610   24.5434 N   0  0  0  0  0  0  0  0  0  0  0  0
   12.8904   -2.5566   24.1002 C   0  0  0  0  0  0  0  0  0  0  0  0
   13.9505   -1.8782   23.2435 C   0  0  0  0  0  0  0  0  0  0  0  0
   14.0964   -0.5149   23.9089 C   0  0  0  0  0  0  0  0  0  0  0  0
   12.6658   -0.1751   24.3006 C   0  0  0  0  0  0  0  0  0  0  0  0
    9.2075   -2.2680   22.4521 C   0  0  0  0  0  0  0  0  0  0  0  0
    8.5739   -1.1884   21.5780 C   0  0  0  0  0  0  0  0  0  0  0  0
    6.9898   -0.0684   19.2129 N   0  0  0  0  0  0  0  0  0  0  0  0
    6.0589    0.8203   18.8357 N   0  0  0  0  0  0  0  0  0  0  0  0
  1  2  1  0
  2  3  2  0
  3  4  1  0
  4  5  1  0
  5  6  1  0
  6  7  1  0
  7  8  1  0
  8  9  1  0
  9 10  2  0
 10 11  1  0
 11 12  2  0
 12 13  1  0
 13 14  2  0
 14 15  1  0
 15 16  2  0
 15 17  1  0
 17 18  1  0
 18 19  1  0
 19 20  1  0
 20 21  1  0
  8 22  1  0
 22 23  1  0
  4 24  2  0
 24 25  1  0
 25  2  1  0
 23  5  1  0
 14  9  1  0
 21 17  1  0
M  END
