
     RDKit          3D

 23 26  0  0  0  0  0  0  0  0999 V2000
   13.3197    6.1564   23.0092 O   0  0  0  0  0  0  0  0  0  0  0  0
   13.5946    5.0362   23.4035 C   0  0  0  0  0  0  0  0  0  0  0  0
   14.7620    4.7134   24.0111 O   0  0  0  0  0  0  0  0  0  0  0  0
   12.6929    3.8653   23.2735 C   0  0  0  0  0  0  0  0  0  0  0  0
   11.3861    4.0033   22.8551 C   0  0  0  0  0  0  0  0  0  0  0  0
   10.6103    2.8496   22.7611 C   0  0  0  0  0  0  0  0  0  0  0  0
   11.1579    1.6050   23.0759 C   0  0  0  0  0  0  0  0  0  0  0  0
   10.3473    0.4484   22.9920 N   0  0  0  0  0  0  0  0  0  0  0  0
    9.3650    0.3736   24.0888 C   0  0  0  0  0  0  0  0  0  0  0  0
    8.3933   -0.7735   23.8206 C   0  0  0  0  0  0  0  0  0  0  0  0
    9.1347   -2.1133   23.6442 C   0  0  0  0  0  0  0  0  0  0  0  0
   10.2222   -1.9581   22.5623 C   0  0  0  0  0  0  0  0  0  0  0  0
   11.1477   -0.7808   22.8616 C   0  0  0  0  0  0  0  0  0  0  0  0
    9.7748   -2.3815   24.9282 O   0  0  0  0  0  0  0  0  0  0  0  0
   10.1310   -3.7543   25.1535 C   0  0  0  0  0  0  0  0  0  0  0  0
    8.8857   -4.6439   25.2259 C   0  0  0  0  0  0  0  0  0  0  0  0
    8.0630   -4.3829   24.0108 C   0  0  0  0  0  0  0  0  0  0  0  0
    6.9146   -5.4785   23.4146 S   0  0  0  0  0  0  0  0  0  0  0  0
    6.5104   -4.4238   22.1288 C   0  0  0  0  0  0  0  0  0  0  0  0
    7.2442   -3.2567   22.1652 C   0  0  0  0  0  0  0  0  0  0  0  0
    8.1539   -3.2204   23.2710 C   0  0  0  0  0  0  0  0  0  0  0  0
   12.4450    1.5391   23.4972 N   0  0  0  0  0  0  0  0  0  0  0  0
   13.2275    2.6657   23.5928 N   0  0  0  0  0  0  0  0  0  0  0  0
  1  2  2  0
  2  3  1  0
  2  4  1  0
  4  5  2  0
  5  6  1  0
  6  7  2  0
  7  8  1  0
  8  9  1  0
  9 10  1  0
 10 11  1  0
 11 12  1  0
 12 13  1  0
 11 14  1  0
 14 15  1  0
 15 16  1  0
 16 17  1  0
 17 18  1  0
 18 19  1  0
 19 20  2  0
 20 21  1  0
  7 22  1  0
 22 23  2  0
 23  4  1  0
 13  8  1  0
 21 17  2  0
 21 11  1  0
M  END
