
     RDKit          3D

 25 27  0  0  0  0  0  0  0  0999 V2000
   13.0146    5.5178   22.1816 C   0  0  0  0  0  0  0  0  0  0  0  0
   13.5491    4.7461   23.2497 O   0  0  0  0  0  0  0  0  0  0  0  0
   12.9521    3.5423   23.5001 C   0  0  0  0  0  0  0  0  0  0  0  0
   13.7344    2.4276   23.2040 C   0  0  0  0  0  0  0  0  0  0  0  0
   13.2414    1.1362   23.4127 C   0  0  0  0  0  0  0  0  0  0  0  0
   11.9518    0.9147   23.9258 C   0  0  0  0  0  0  0  0  0  0  0  0
   11.4291   -0.5152   24.1302 C   0  0  2  0  0  0  0  0  0  0  0  0
   10.8113   -1.1377   22.8893 C   0  0  0  0  0  0  0  0  0  0  0  0
   11.5581   -1.6337   22.0438 O   0  0  0  0  0  0  0  0  0  0  0  0
    9.4261   -1.1128   22.7205 N   0  0  0  0  0  0  0  0  0  0  0  0
    8.5097   -0.2936   23.5190 C   0  0  0  0  0  0  0  0  0  0  0  0
    7.8033    0.8091   22.7249 C   0  0  0  0  0  0  0  0  0  0  0  0
    8.7530    1.4900   21.9065 O   0  0  0  0  0  0  0  0  0  0  0  0
    8.8859   -1.7267   21.5075 C   0  0  0  0  0  0  0  0  0  0  0  0
    7.7093   -2.5907   21.8229 C   0  0  0  0  0  0  0  0  0  0  0  0
    6.4513   -2.3957   21.4769 N   0  0  0  0  0  0  0  0  0  0  0  0
    5.7572   -3.4576   21.9987 C   0  0  0  0  0  0  0  0  0  0  0  0
    6.6009   -4.3143   22.6630 C   0  0  0  0  0  0  0  0  0  0  0  0
    7.8394   -3.7514   22.5491 N   0  0  0  0  0  0  0  0  0  0  0  0
   10.9307   -0.9604   25.5061 C   0  0  0  0  0  0  0  0  0  0  0  0
   12.2736   -1.4544   25.0565 C   0  0  0  0  0  0  0  0  0  0  0  0
   13.4875   -0.9182   25.7817 C   0  0  0  0  0  0  0  0  0  0  0  0
   12.3947   -2.9252   24.7279 C   0  0  0  0  0  0  0  0  0  0  0  0
   11.1806    2.0532   24.2146 C   0  0  0  0  0  0  0  0  0  0  0  0
   11.6697    3.3503   24.0065 C   0  0  0  0  0  0  0  0  0  0  0  0
  1  2  1  0
  2  3  1  0
  3  4  2  0
  4  5  1  0
  5  6  2  0
  6  7  1  0
  7  8  1  6
  8  9  2  0
  8 10  1  0
 10 11  1  0
 11 12  1  0
 12 13  1  0
 10 14  1  0
 14 15  1  0
 15 16  2  0
 16 17  1  0
 17 18  2  0
 18 19  1  0
  7 20  1  0
 20 21  1  0
 21 22  1  0
 21 23  1  0
  6 24  1  0
 24 25  2  0
 25  3  1  0
 21  7  1  0
 19 15  1  0
M  END
