
     RDKit          3D

 24 26  0  0  0  0  0  0  0  0999 V2000
    4.0415    1.5999   19.1752 C   0  0  0  0  0  0  0  0  0  0  0  0
    4.1396    0.4042   19.9378 O   0  0  0  0  0  0  0  0  0  0  0  0
    5.3551    0.1310   20.5002 C   0  0  0  0  0  0  0  0  0  0  0  0
    5.6808   -1.0019   21.2450 C   0  0  0  0  0  0  0  0  0  0  0  0
    6.9722   -1.1568   21.7672 C   0  0  0  0  0  0  0  0  0  0  0  0
    7.9567   -0.1849   21.5519 C   0  0  0  0  0  0  0  0  0  0  0  0
    9.2964   -0.3255   22.1066 C   0  0  0  0  0  0  0  0  0  0  0  0
    9.7831   -1.5940   22.0670 O   0  0  0  0  0  0  0  0  0  0  0  0
   11.0605   -1.6200   22.5629 N   0  0  0  0  0  0  0  0  0  0  0  0
   11.3449   -0.3713   22.9550 C   0  0  0  0  0  0  0  0  0  0  0  0
   12.5174   -0.0012   23.5610 N   0  0  0  0  0  0  0  0  0  0  0  0
   12.4468    0.8570   24.7502 C   0  0  0  0  0  0  0  0  0  0  0  0
   12.3047    0.0077   26.0126 C   0  0  0  0  0  0  0  0  0  0  0  0
   13.4370   -1.0111   26.1212 C   0  0  0  0  0  0  0  0  0  0  0  0
   13.5382   -1.8763   24.8515 C   0  0  2  0  0  0  0  0  0  0  0  0
   14.7431   -2.8241   24.9653 C   0  0  0  0  0  0  0  0  0  0  0  0
   14.6216   -3.7508   26.0832 N   0  0  0  0  0  0  0  0  0  0  0  0
   13.6233   -0.9792   23.6032 C   0  0  0  0  0  0  0  0  0  0  0  0
   10.2594    0.5103   22.6463 C   0  0  0  0  0  0  0  0  0  0  0  0
   10.1176    1.9329   22.8163 C   0  0  0  0  0  0  0  0  0  0  0  0
   10.7680    2.7917   22.2352 O   0  0  0  0  0  0  0  0  0  0  0  0
    9.1984    2.3319   23.7221 O   0  0  0  0  0  0  0  0  0  0  0  0
    7.6183    0.9523   20.8061 C   0  0  0  0  0  0  0  0  0  0  0  0
    6.3306    1.1037   20.2824 C   0  0  0  0  0  0  0  0  0  0  0  0
  1  2  1  0
  2  3  1  0
  3  4  2  0
  4  5  1  0
  5  6  2  0
  6  7  1  0
  7  8  1  0
  8  9  1  0
  9 10  2  0
 10 11  1  0
 11 12  1  0
 12 13  1  0
 13 14  1  0
 14 15  1  0
 15 16  1  1
 16 17  1  0
 15 18  1  0
 10 19  1  0
 19 20  1  0
 20 21  2  0
 20 22  1  0
  6 23  1  0
 23 24  2  0
 24  3  1  0
 19  7  2  0
 18 11  1  0
M  END
