
     RDKit          3D

 25 27  0  0  0  0  0  0  0  0999 V2000
    0.8706   -5.2121   24.3211 C   0  0  0  0  0  0  0  0  0  0  0  0
    1.9142   -5.7886   23.4004 C   0  0  0  0  0  0  0  0  0  0  0  0
    1.5981   -6.5064   22.4535 O   0  0  0  0  0  0  0  0  0  0  0  0
    3.3523   -5.4781   23.6540 C   0  0  0  0  0  0  0  0  0  0  0  0
    4.3786   -5.9642   22.8415 C   0  0  0  0  0  0  0  0  0  0  0  0
    5.7160   -5.6440   23.1222 C   0  0  0  0  0  0  0  0  0  0  0  0
    6.0661   -4.8277   24.2069 C   0  0  0  0  0  0  0  0  0  0  0  0
    7.3883   -4.4888   24.5312 N   0  0  0  0  0  0  0  0  0  0  0  0
    7.9365   -3.3807   23.7033 C   0  0  0  0  0  0  0  0  0  0  0  0
    9.2645   -2.8485   24.2885 C   0  0  0  0  0  0  0  0  0  0  0  0
   10.2304   -3.9403   24.5134 N   0  0  0  0  0  0  0  0  0  0  0  0
   11.4811   -3.4991   24.9541 C   0  0  0  0  0  0  0  0  0  0  0  0
   12.1342   -4.2218   25.8766 N   0  0  0  0  0  0  0  0  0  0  0  0
   13.3236   -3.7514   26.2914 C   0  0  0  0  0  0  0  0  0  0  0  0
   13.8830   -2.5855   25.8348 C   0  0  0  0  0  0  0  0  0  0  0  0
   15.0808   -2.2060   26.3011 F   0  0  0  0  0  0  0  0  0  0  0  0
   13.1623   -1.8621   24.8963 C   0  0  0  0  0  0  0  0  0  0  0  0
   13.6332   -0.6611   24.3309 N   0  0  0  0  0  0  0  0  0  0  0  0
   13.1240    0.5846   24.8955 C   0  0  0  0  0  0  0  0  0  0  0  0
   13.7680   -0.6898   22.8767 C   0  0  0  0  0  0  0  0  0  0  0  0
   11.9697   -2.3415   24.4669 N   0  0  0  0  0  0  0  0  0  0  0  0
    9.6910   -5.0612   25.3050 C   0  0  0  0  0  0  0  0  0  0  0  0
    8.3711   -5.5848   24.6963 C   0  0  0  0  0  0  0  0  0  0  0  0
    5.0184   -4.3606   25.0170 C   0  0  0  0  0  0  0  0  0  0  0  0
    3.6811   -4.6744   24.7475 C   0  0  0  0  0  0  0  0  0  0  0  0
  1  2  1  0
  2  3  2  0
  2  4  1  0
  4  5  2  0
  5  6  1  0
  6  7  2  0
  7  8  1  0
  8  9  1  0
  9 10  1  0
 10 11  1  0
 11 12  1  0
 12 13  2  0
 13 14  1  0
 14 15  2  0
 15 16  1  0
 15 17  1  0
 17 18  1  0
 18 19  1  0
 18 20  1  0
 17 21  2  0
 11 22  1  0
 22 23  1  0
  7 24  1  0
 24 25  2  0
 25  4  1  0
 23  8  1  0
 21 12  1  0
M  END
