
     RDKit          3D

 25 27  0  0  0  0  0  0  0  0999 V2000
    6.9447   -4.4557   25.9022 O   0  0  0  0  0  0  0  0  0  0  0  0
    7.8884   -5.0434   25.3866 C   0  0  0  0  0  0  0  0  0  0  0  0
    9.1861   -5.3561   26.1034 C   0  0  0  0  0  0  0  0  0  0  0  0
   10.1084   -4.1397   26.1771 C   0  0  0  0  0  0  0  0  0  0  0  0
   11.1490   -4.1190   25.0495 C   0  0  0  0  0  0  0  0  0  0  0  0
   11.8361   -2.8256   24.8726 N   0  0  0  0  0  0  0  0  0  0  0  0
   13.2494   -2.9258   25.2567 C   0  0  0  0  0  0  0  0  0  0  0  0
   13.7102   -1.6425   25.9543 C   0  0  0  0  0  0  0  0  0  0  0  0
   13.9403   -0.4376   25.0479 C   0  0  0  0  0  0  0  0  0  0  0  0
   12.7686   -0.0740   24.1406 C   0  0  0  0  0  0  0  0  0  0  0  0
   12.5259   -1.1316   23.0692 C   0  0  0  0  0  0  0  0  0  0  0  0
   11.6339   -2.2953   23.5154 C   0  0  0  0  0  0  0  0  0  0  0  0
    7.8809   -5.4836   24.0794 N   0  0  0  0  0  0  0  0  0  0  0  0
    6.7332   -5.2870   23.2099 C   0  0  2  0  0  0  0  0  0  0  0  0
    6.5469   -6.4213   22.2039 C   0  0  0  0  0  0  0  0  0  0  0  0
    6.0229   -5.8517   20.9957 O   0  0  0  0  0  0  0  0  0  0  0  0
    5.9078   -4.4347   21.1823 C   0  0  0  0  0  0  0  0  0  0  0  0
    6.8715   -4.0711   22.3008 C   0  0  1  0  0  0  0  0  0  0  0  0
    6.5498   -2.7396   22.9840 C   0  0  0  0  0  0  0  0  0  0  0  0
    7.0233   -1.5450   22.1929 C   0  0  0  0  0  0  0  0  0  0  0  0
    8.1763   -0.8502   22.5679 C   0  0  0  0  0  0  0  0  0  0  0  0
    8.5787    0.2335   21.8024 C   0  0  0  0  0  0  0  0  0  0  0  0
    7.9213    0.6647   20.7054 N   0  0  0  0  0  0  0  0  0  0  0  0
    6.8076   -0.0164   20.3626 C   0  0  0  0  0  0  0  0  0  0  0  0
    6.3252   -1.1118   21.0631 C   0  0  0  0  0  0  0  0  0  0  0  0
  1  2  2  0
  2  3  1  0
  3  4  1  0
  4  5  1  0
  5  6  1  0
  6  7  1  0
  7  8  1  0
  8  9  1  0
  9 10  1  0
 10 11  1  0
 11 12  1  0
  2 13  1  0
 14 13  1  6
 14 15  1  0
 15 16  1  0
 16 17  1  0
 17 18  1  0
 18 19  1  1
 19 20  1  0
 20 21  2  0
 21 22  1  0
 22 23  2  0
 23 24  1  0
 24 25  2  0
 12  6  1  0
 18 14  1  0
 25 20  1  0
M  END
