
     RDKit          3D

 25 27  0  0  0  0  0  0  0  0999 V2000
    5.4781   -5.3396   22.7987 C   0  0  0  0  0  0  0  0  0  0  0  0
    6.2783   -4.1390   22.3245 C   0  0  0  0  0  0  0  0  0  0  0  0
    5.7365   -3.6147   21.1132 O   0  0  0  0  0  0  0  0  0  0  0  0
    6.2832   -2.4798   20.5835 C   0  0  0  0  0  0  0  0  0  0  0  0
    5.7550   -2.1069   19.3468 C   0  0  0  0  0  0  0  0  0  0  0  0
    6.2239   -0.9707   18.6885 C   0  0  0  0  0  0  0  0  0  0  0  0
    7.2321   -0.1952   19.2633 C   0  0  0  0  0  0  0  0  0  0  0  0
    7.7720   -0.5579   20.4966 C   0  0  0  0  0  0  0  0  0  0  0  0
    8.7655    0.0980   21.1707 O   0  0  0  0  0  0  0  0  0  0  0  0
    8.5466    0.4668   22.5357 C   0  0  0  0  0  0  0  0  0  0  0  0
    9.1321    1.8581   22.8283 C   0  0  0  0  0  0  0  0  0  0  0  0
   10.5981    1.8732   22.8695 N   0  0  0  0  0  0  0  0  0  0  0  0
   11.1385    3.2409   22.7431 C   0  0  0  0  0  0  0  0  0  0  0  0
   12.4746    3.2378   23.5074 C   0  0  2  0  0  0  0  0  0  0  0  0
   13.5337    3.7011   22.6878 O   0  0  0  0  0  0  0  0  0  0  0  0
   12.6270    1.7969   24.0274 C   0  0  2  0  0  0  0  0  0  0  0  0
   13.4601    0.8764   23.1140 C   0  0  0  0  0  0  0  0  0  0  0  0
   13.7903   -0.4464   23.7410 C   0  0  0  0  0  0  0  0  0  0  0  0
   14.0993   -0.7001   25.0978 C   0  0  0  0  0  0  0  0  0  0  0  0
   14.3095   -2.0579   25.1742 C   0  0  0  0  0  0  0  0  0  0  0  0
   14.6601   -2.9441   26.3049 C   0  0  0  0  0  0  0  0  0  0  0  0
   14.1177   -2.5315   23.9068 N   0  0  0  0  0  0  0  0  0  0  0  0
   13.8080   -1.5744   23.0149 N   0  0  0  0  0  0  0  0  0  0  0  0
   11.1673    1.3471   24.1097 C   0  0  0  0  0  0  0  0  0  0  0  0
    7.2947   -1.7031   21.1490 C   0  0  0  0  0  0  0  0  0  0  0  0
  1  2  1  0
  2  3  1  0
  3  4  1  0
  4  5  2  0
  5  6  1  0
  6  7  2  0
  7  8  1  0
  8  9  1  0
  9 10  1  0
 10 11  1  0
 11 12  1  0
 12 13  1  0
 13 14  1  0
 14 15  1  6
 14 16  1  0
 16 17  1  6
 17 18  1  0
 18 19  1  0
 19 20  2  0
 20 21  1  0
 20 22  1  0
 22 23  1  0
 16 24  1  0
  8 25  2  0
 25  4  1  0
 24 12  1  0
 23 18  2  0
M  END
