
     RDKit          3D

 25 27  0  0  0  0  0  0  0  0999 V2000
    7.7599   -5.4234   28.5835 C   0  0  0  0  0  0  0  0  0  0  0  0
    8.7882   -5.4109   27.5184 C   0  0  0  0  0  0  0  0  0  0  0  0
    9.0154   -6.3472   26.6211 N   0  0  0  0  0  0  0  0  0  0  0  0
   10.0611   -5.8881   25.8623 C   0  0  0  0  0  0  0  0  0  0  0  0
   10.4866   -4.6557   26.3047 C   0  0  0  0  0  0  0  0  0  0  0  0
   11.5572   -3.7359   25.8416 C   0  0  0  0  0  0  0  0  0  0  0  0
   11.3396   -3.3274   24.4435 N   0  0  0  0  0  0  0  0  0  0  0  0
   10.1270   -2.4873   24.2781 C   0  0  0  0  0  0  0  0  0  0  0  0
    9.6367   -2.3037   22.8456 C   0  0  0  0  0  0  0  0  0  0  0  0
   10.2283   -1.8365   21.8866 O   0  0  0  0  0  0  0  0  0  0  0  0
    8.3674   -2.7449   22.6947 O   0  0  0  0  0  0  0  0  0  0  0  0
   12.5688   -2.7434   23.8799 C   0  0  0  0  0  0  0  0  0  0  0  0
   12.9347   -1.3147   24.3536 C   0  0  1  0  0  0  0  0  0  0  0  0
   14.0353   -1.4035   25.4202 C   0  0  0  0  0  0  0  0  0  0  0  0
   13.3168   -0.3229   23.2289 C   0  0  0  0  0  0  0  0  0  0  0  0
   12.7987    1.0897   23.3682 C   0  0  0  0  0  0  0  0  0  0  0  0
   11.4295    1.3515   23.5880 C   0  0  0  0  0  0  0  0  0  0  0  0
   10.9659    2.6616   23.7550 C   0  0  0  0  0  0  0  0  0  0  0  0
   11.8890    3.6831   23.6995 C   0  0  0  0  0  0  0  0  0  0  0  0
   13.2215    3.4399   23.4742 C   0  0  0  0  0  0  0  0  0  0  0  0
   13.7013    2.1626   23.2886 C   0  0  0  0  0  0  0  0  0  0  0  0
   13.9703    4.5757   23.4788 O   0  0  0  0  0  0  0  0  0  0  0  0
   12.9427    5.5692   23.6934 C   0  0  0  0  0  0  0  0  0  0  0  0
   11.6243    5.0072   23.8566 O   0  0  0  0  0  0  0  0  0  0  0  0
    9.6501   -4.3576   27.3514 N   0  0  0  0  0  0  0  0  0  0  0  0
  1  2  1  0
  2  3  2  0
  3  4  1  0
  4  5  2  0
  5  6  1  0
  6  7  1  0
  7  8  1  0
  8  9  1  0
  9 10  2  0
  9 11  1  0
  7 12  1  0
 12 13  1  0
 13 14  1  1
 13 15  1  0
 15 16  1  0
 16 17  2  0
 17 18  1  0
 18 19  2  0
 19 20  1  0
 20 21  2  0
 20 22  1  0
 22 23  1  0
 23 24  1  0
  5 25  1  0
 25  2  1  0
 21 16  1  0
 24 19  1  0
M  END
