
     RDKit          3D

 23 24  0  0  0  0  0  0  0  0999 V2000
   13.8478   -0.2070   23.0754 C   0  0  0  0  0  0  0  0  0  0  0  0
   14.4386   -0.9905   24.1066 O   0  0  0  0  0  0  0  0  0  0  0  0
   13.5837   -1.9426   24.6314 C   0  0  0  0  0  0  0  0  0  0  0  0
   12.3283   -2.0528   24.1450 N   0  0  0  0  0  0  0  0  0  0  0  0
   11.5491   -2.9921   24.6970 C   0  0  0  0  0  0  0  0  0  0  0  0
   10.2603   -3.0697   24.1896 N   0  0  0  0  0  0  0  0  0  0  0  0
    9.6699   -1.7855   23.8260 C   0  0  0  0  0  0  0  0  0  0  0  0
    9.7684   -1.5777   22.3176 C   0  0  0  0  0  0  0  0  0  0  0  0
    8.4480   -1.8710   21.6664 C   0  0  0  0  0  0  0  0  0  0  0  0
    7.8824   -3.0671   21.9026 N   0  0  0  0  0  0  0  0  0  0  0  0
    6.7073   -3.3296   21.2985 C   0  0  0  0  0  0  0  0  0  0  0  0
    6.0768   -4.6630   21.5667 C   0  0  0  0  0  0  0  0  0  0  0  0
    6.0922   -2.4218   20.4612 C   0  0  0  0  0  0  0  0  0  0  0  0
    6.7391   -1.2125   20.2622 C   0  0  0  0  0  0  0  0  0  0  0  0
    6.0991   -0.1864   19.3410 C   0  0  0  0  0  0  0  0  0  0  0  0
    4.7703   -0.0128   19.6023 F   0  0  0  0  0  0  0  0  0  0  0  0
    6.6592    1.0519   19.4740 F   0  0  0  0  0  0  0  0  0  0  0  0
    6.1813   -0.4903   18.0155 F   0  0  0  0  0  0  0  0  0  0  0  0
    7.9264   -0.9303   20.8597 N   0  0  0  0  0  0  0  0  0  0  0  0
   11.9481   -3.8217   25.6747 N   0  0  0  0  0  0  0  0  0  0  0  0
   13.2113   -3.6747   26.1269 C   0  0  0  0  0  0  0  0  0  0  0  0
   14.0805   -2.7402   25.6344 C   0  0  0  0  0  0  0  0  0  0  0  0
   15.3274   -2.6264   26.1077 F   0  0  0  0  0  0  0  0  0  0  0  0
  1  2  1  0
  2  3  1  0
  3  4  2  0
  4  5  1  0
  5  6  1  0
  6  7  1  0
  7  8  1  0
  8  9  1  0
  9 10  2  0
 10 11  1  0
 11 12  1  0
 11 13  2  0
 13 14  1  0
 14 15  1  0
 15 16  1  0
 15 17  1  0
 15 18  1  0
 14 19  2  0
  5 20  2  0
 20 21  1  0
 21 22  2  0
 22 23  1  0
 22  3  1  0
 19  9  1  0
M  END
