
     RDKit          3D

 22 24  0  0  0  0  0  0  0  0999 V2000
    9.1611   -2.7445   22.3262 O   0  0  0  0  0  0  0  0  0  0  0  0
    8.8219   -1.8460   23.4073 S   0  0  0  0  0  0  0  0  0  0  0  0
    7.6076   -1.0585   23.3903 O   0  0  0  0  0  0  0  0  0  0  0  0
    8.8366   -2.8181   24.8938 C   0  0  0  0  0  0  0  0  0  0  0  0
    8.0845   -2.4198   26.0061 C   0  0  0  0  0  0  0  0  0  0  0  0
    8.1133   -3.1974   27.1657 C   0  0  0  0  0  0  0  0  0  0  0  0
    8.8865   -4.3560   27.1979 C   0  0  0  0  0  0  0  0  0  0  0  0
    8.9130   -5.0943   28.3157 F   0  0  0  0  0  0  0  0  0  0  0  0
    9.6263   -4.7454   26.0847 C   0  0  0  0  0  0  0  0  0  0  0  0
   10.3688   -5.8598   26.1268 F   0  0  0  0  0  0  0  0  0  0  0  0
    9.6078   -3.9845   24.9229 C   0  0  0  0  0  0  0  0  0  0  0  0
   10.1298   -0.7690   23.6611 N   0  0  0  0  0  0  0  0  0  0  0  0
    9.9721    0.5660   23.0223 C   0  0  0  0  0  0  0  0  0  0  0  0
   11.0457    1.5066   23.5593 C   0  0  0  0  0  0  0  0  0  0  0  0
   12.4444    0.9412   23.3209 C   0  0  0  0  0  0  0  0  0  0  0  0
   12.5942   -0.4840   23.8865 C   0  0  2  0  0  0  0  0  0  0  0  0
   12.6191   -0.5006   25.4290 C   0  0  0  0  0  0  0  0  0  0  0  0
   13.3457   -1.7927   25.8074 C   0  0  0  0  0  0  0  0  0  0  0  0
   14.1678   -2.1947   24.5842 C   0  0  0  0  0  0  0  0  0  0  0  0
   13.9899   -1.0592   23.5799 C   0  0  1  0  0  0  0  0  0  0  0  0
   14.1194   -1.5372   22.2552 O   0  0  0  0  0  0  0  0  0  0  0  0
   11.4587   -1.3743   23.3237 C   0  0  0  0  0  0  0  0  0  0  0  0
  1  2  2  0
  2  3  2  0
  2  4  1  0
  4  5  2  0
  5  6  1  0
  6  7  2  0
  7  8  1  0
  7  9  1  0
  9 10  1  0
  9 11  2  0
  2 12  1  0
 12 13  1  0
 13 14  1  0
 14 15  1  0
 16 15  1  1
 16 17  1  0
 17 18  1  0
 18 19  1  0
 19 20  1  0
 20 21  1  6
 16 22  1  0
 11  4  1  0
 22 12  1  0
 20 16  1  0
M  END
