
     RDKit          3D

 24 26  0  0  0  0  0  0  0  0999 V2000
    6.5397   -0.8998   19.0361 C   0  0  0  0  0  0  0  0  0  0  0  0
    6.1295   -0.8092   20.4953 C   0  0  0  0  0  0  0  0  0  0  0  0
    6.3966   -2.0404   21.2187 N   0  0  0  0  0  0  0  0  0  0  0  0
    5.4478   -3.0004   21.2201 N   0  0  0  0  0  0  0  0  0  0  0  0
    5.9838   -3.9968   21.9312 C   0  0  0  0  0  0  0  0  0  0  0  0
    5.2479   -5.2897   22.1367 C   0  0  0  0  0  0  0  0  0  0  0  0
    6.1698   -6.3902   22.6659 C   0  0  0  0  0  0  0  0  0  0  0  0
    4.0358   -5.1143   23.0540 C   0  0  0  0  0  0  0  0  0  0  0  0
    7.2644   -3.6481   22.4125 C   0  0  0  0  0  0  0  0  0  0  0  0
    7.5021   -2.3569   21.9712 C   0  0  0  0  0  0  0  0  0  0  0  0
    8.6627   -1.5085   22.1365 C   0  0  0  0  0  0  0  0  0  0  0  0
    9.2826   -1.0846   21.1611 O   0  0  0  0  0  0  0  0  0  0  0  0
    9.0868   -1.2078   23.4404 N   0  0  0  0  0  0  0  0  0  0  0  0
    8.2556   -1.4476   24.6176 C   0  0  0  0  0  0  0  0  0  0  0  0
   10.2629   -0.3479   23.5767 C   0  0  1  0  0  0  0  0  0  0  0  0
   10.6738   -0.0960   25.0275 C   0  0  0  0  0  0  0  0  0  0  0  0
   12.0819    0.5134   24.9211 C   0  0  1  0  0  0  0  0  0  0  0  0
   12.9770    0.1260   26.0945 C   0  0  0  0  0  0  0  0  0  0  0  0
   13.4863   -1.2131   25.9305 N   0  0  0  0  0  0  0  0  0  0  0  0
   14.0959   -1.6122   24.7712 C   0  0  0  0  0  0  0  0  0  0  0  0
   14.6932   -2.6794   24.6961 O   0  0  0  0  0  0  0  0  0  0  0  0
   14.0094   -0.6232   23.6279 C   0  0  0  0  0  0  0  0  0  0  0  0
   12.6385    0.0505   23.5512 C   0  0  1  0  0  0  0  0  0  0  0  0
   11.5592   -0.8676   22.9558 C   0  0  0  0  0  0  0  0  0  0  0  0
  1  2  1  0
  2  3  1  0
  3  4  1  0
  4  5  2  0
  5  6  1  0
  6  7  1  0
  6  8  1  0
  5  9  1  0
  9 10  2  0
 10 11  1  0
 11 12  2  0
 11 13  1  0
 13 14  1  0
 15 13  1  1
 15 16  1  0
 17 16  1  1
 17 18  1  0
 18 19  1  0
 19 20  1  0
 20 21  2  0
 20 22  1  0
 23 22  1  1
 23 24  1  0
 10  3  1  0
 24 15  1  0
 23 17  1  0
M  END
