
     RDKit          3D

 24 26  0  0  0  0  0  0  0  0999 V2000
   -0.4809   -7.4520   20.5319 C   0  0  0  0  0  0  0  0  0  0  0  0
   -0.2806   -6.9548   21.9376 C   0  0  0  0  0  0  0  0  0  0  0  0
   -1.1964   -6.8975   22.7511 O   0  0  0  0  0  0  0  0  0  0  0  0
    1.0049   -6.5464   22.2144 N   0  0  0  0  0  0  0  0  0  0  0  0
    1.3656   -6.0363   23.5350 C   0  0  1  0  0  0  0  0  0  0  0  0
    1.6501   -7.1631   24.5165 C   0  0  0  0  0  0  0  0  0  0  0  0
    3.0734   -7.5871   24.1649 C   0  0  0  0  0  0  0  0  0  0  0  0
    3.7427   -6.3870   23.5799 N   0  0  0  0  0  0  0  0  0  0  0  0
    4.9145   -6.0115   24.1941 C   0  0  0  0  0  0  0  0  0  0  0  0
    5.2084   -6.1502   25.4873 N   0  0  0  0  0  0  0  0  0  0  0  0
    6.4729   -5.6238   25.6411 O   0  0  0  0  0  0  0  0  0  0  0  0
    6.9400   -5.1691   24.4417 C   0  0  0  0  0  0  0  0  0  0  0  0
    8.2700   -4.5765   24.5016 C   0  0  0  0  0  0  0  0  0  0  0  0
    8.5325   -3.3635   23.8434 C   0  0  0  0  0  0  0  0  0  0  0  0
    9.8059   -2.7862   23.8841 C   0  0  0  0  0  0  0  0  0  0  0  0
   10.8305   -3.4213   24.5807 C   0  0  0  0  0  0  0  0  0  0  0  0
   12.3978   -2.7151   24.6311 Cl  0  0  0  0  0  0  0  0  0  0  0  0
   10.5923   -4.6282   25.2327 C   0  0  0  0  0  0  0  0  0  0  0  0
    9.3174   -5.2041   25.1900 C   0  0  0  0  0  0  0  0  0  0  0  0
    5.9814   -5.4060   23.4748 C   0  0  0  0  0  0  0  0  0  0  0  0
    6.0606   -5.1270   22.0586 C   0  0  0  0  0  0  0  0  0  0  0  0
    5.4070   -4.2699   21.4816 O   0  0  0  0  0  0  0  0  0  0  0  0
    6.9451   -5.9080   21.3769 O   0  0  0  0  0  0  0  0  0  0  0  0
    2.7122   -5.3025   23.5286 C   0  0  0  0  0  0  0  0  0  0  0  0
  1  2  1  0
  2  3  2  0
  2  4  1  0
  5  4  1  6
  5  6  1  0
  6  7  1  0
  7  8  1  0
  8  9  1  0
  9 10  2  0
 10 11  1  0
 11 12  1  0
 12 13  1  0
 13 14  2  0
 14 15  1  0
 15 16  2  0
 16 17  1  0
 16 18  1  0
 18 19  2  0
 12 20  2  0
 20 21  1  0
 21 22  2  0
 21 23  1  0
  8 24  1  0
 24  5  1  0
 20  9  1  0
 19 13  1  0
M  END
