
     RDKit          3D

 25 27  0  0  0  0  0  0  0  0999 V2000
    8.5925    0.6500   23.9131 C   0  0  0  0  0  0  0  0  0  0  0  0
    9.4839    1.6039   23.1561 C   0  0  0  0  0  0  0  0  0  0  0  0
    9.3649    1.7428   21.9449 O   0  0  0  0  0  0  0  0  0  0  0  0
   10.3778    2.2485   23.9929 N   0  0  0  0  0  0  0  0  0  0  0  0
   11.3647    3.2092   23.6433 C   0  0  0  0  0  0  0  0  0  0  0  0
   11.0319    4.3974   22.9787 C   0  0  0  0  0  0  0  0  0  0  0  0
   12.0017    5.3624   22.7009 C   0  0  0  0  0  0  0  0  0  0  0  0
   13.3186    5.1536   23.0861 C   0  0  0  0  0  0  0  0  0  0  0  0
   13.6744    3.9714   23.7364 C   0  0  0  0  0  0  0  0  0  0  0  0
   12.7187    2.9834   24.0085 C   0  0  0  0  0  0  0  0  0  0  0  0
   13.0801    1.7551   24.6051 N   0  0  0  0  0  0  0  0  0  0  0  0
   13.7630    0.6808   24.0627 C   0  0  0  0  0  0  0  0  0  0  0  0
   14.2466    0.5965   22.9393 O   0  0  0  0  0  0  0  0  0  0  0  0
   13.9347   -0.4562   25.0872 C   0  0  0  0  0  0  0  0  0  0  0  0
   14.1480   -1.7648   24.4041 N   0  0  0  0  0  0  0  0  0  0  0  0
   13.0280   -2.0563   23.4810 C   0  0  0  0  0  0  0  0  0  0  0  0
   11.6848   -2.4085   24.1619 C   0  0  0  0  0  0  0  0  0  0  0  0
   11.8079   -3.5428   25.0981 N   0  0  0  0  0  0  0  0  0  0  0  0
   10.5342   -3.8368   25.7752 C   0  0  0  0  0  0  0  0  0  0  0  0
    9.3816   -4.1711   24.8186 C   0  0  0  0  0  0  0  0  0  0  0  0
    8.3341   -4.8400   25.7029 C   0  0  0  0  0  0  0  0  0  0  0  0
    9.0986   -5.4397   26.8801 C   0  0  0  0  0  0  0  0  0  0  0  0
   10.5669   -5.1025   26.6425 C   0  0  0  0  0  0  0  0  0  0  0  0
   12.8940   -3.2801   26.0638 C   0  0  0  0  0  0  0  0  0  0  0  0
   14.2276   -2.8792   25.3848 C   0  0  0  0  0  0  0  0  0  0  0  0
  1  2  1  0
  2  3  2  0
  2  4  1  0
  4  5  1  0
  5  6  2  0
  6  7  1  0
  7  8  2  0
  8  9  1  0
  9 10  2  0
 10 11  1  0
 11 12  1  0
 12 13  2  0
 12 14  1  0
 14 15  1  0
 15 16  1  0
 16 17  1  0
 17 18  1  0
 18 19  1  0
 19 20  1  0
 20 21  1  0
 21 22  1  0
 22 23  1  0
 18 24  1  0
 24 25  1  0
 10  5  1  0
 25 15  1  0
 23 19  1  0
M  END
