
     RDKit          3D

 23 25  0  0  0  0  0  0  0  0999 V2000
   14.1353   -2.2406   25.6677 C   0  0  0  0  0  0  0  0  0  0  0  0
   14.1132   -0.9591   25.0525 O   0  0  0  0  0  0  0  0  0  0  0  0
   13.1353   -0.8572   24.0094 C   0  0  2  0  0  0  0  0  0  0  0  0
   13.7341   -0.0912   22.8243 C   0  0  0  0  0  0  0  0  0  0  0  0
   13.4464    1.3882   23.0927 C   0  0  0  0  0  0  0  0  0  0  0  0
   12.5633    1.4433   24.3382 C   0  0  0  0  0  0  0  0  0  0  0  0
   11.9571    0.0323   24.4767 C   0  0  2  0  0  0  0  0  0  0  0  0
   11.5299   -0.2679   25.9279 C   0  0  0  0  0  0  0  0  0  0  0  0
   10.2907    0.5262   26.3358 C   0  0  0  0  0  0  0  0  0  0  0  0
    9.1441    0.3141   25.3507 C   0  0  0  0  0  0  0  0  0  0  0  0
    9.5955    0.6521   23.9921 N   0  0  0  0  0  0  0  0  0  0  0  0
    8.5201    0.6230   23.0731 C   0  0  0  0  0  0  0  0  0  0  0  0
    8.1343    1.8065   22.4420 C   0  0  0  0  0  0  0  0  0  0  0  0
    7.0829    1.8004   21.5262 C   0  0  0  0  0  0  0  0  0  0  0  0
    6.4262    0.6057   21.2424 C   0  0  0  0  0  0  0  0  0  0  0  0
    5.2946    0.5437   20.2620 C   0  0  0  0  0  0  0  0  0  0  0  0
    5.9141    0.0171   18.6688 S   0  0  0  0  0  0  0  0  0  0  0  0
    6.0771   -1.7365   18.8911 C   0  0  0  0  0  0  0  0  0  0  0  0
    7.2525    0.5453   18.4838 O   0  0  0  0  0  0  0  0  0  0  0  0
    4.8773    0.2214   17.6743 O   0  0  0  0  0  0  0  0  0  0  0  0
    6.8683   -0.5273   21.9125 C   0  0  0  0  0  0  0  0  0  0  0  0
    7.8955   -0.5411   22.7928 N   0  0  0  0  0  0  0  0  0  0  0  0
   10.7398   -0.1595   23.5345 C   0  0  0  0  0  0  0  0  0  0  0  0
  1  2  1  0
  3  2  1  1
  3  4  1  0
  4  5  1  0
  5  6  1  0
  7  6  1  1
  7  8  1  0
  8  9  1  0
  9 10  1  0
 10 11  1  0
 11 12  1  0
 12 13  2  0
 13 14  1  0
 14 15  2  0
 15 16  1  0
 16 17  1  0
 17 18  1  0
 17 19  2  0
 17 20  2  0
 15 21  1  0
 21 22  2  0
 11 23  1  0
  7  3  1  0
 22 12  1  0
 23  7  1  0
M  END
