
     RDKit          3D

 22 24  0  0  0  0  0  0  0  0999 V2000
    9.1224   -2.7240   23.8672 O   0  0  0  0  0  0  0  0  0  0  0  0
    8.7536   -1.3264   23.9830 S   0  0  0  0  0  0  0  0  0  0  0  0
    8.0045   -0.8676   25.1319 O   0  0  0  0  0  0  0  0  0  0  0  0
    7.8413   -0.9145   22.5236 C   0  0  0  0  0  0  0  0  0  0  0  0
    8.3702   -1.2202   21.2617 C   0  0  0  0  0  0  0  0  0  0  0  0
    7.6281   -0.9294   20.1157 C   0  0  0  0  0  0  0  0  0  0  0  0
    6.3686   -0.3502   20.2412 C   0  0  0  0  0  0  0  0  0  0  0  0
    5.6601   -0.0720   19.1398 F   0  0  0  0  0  0  0  0  0  0  0  0
    5.8348   -0.0566   21.4895 C   0  0  0  0  0  0  0  0  0  0  0  0
    6.5758   -0.3469   22.6311 C   0  0  0  0  0  0  0  0  0  0  0  0
    6.0482   -0.0335   23.8212 F   0  0  0  0  0  0  0  0  0  0  0  0
   10.1834   -0.4129   23.8489 N   0  0  0  0  0  0  0  0  0  0  0  0
   10.0663    0.9409   23.2608 C   0  0  0  0  0  0  0  0  0  0  0  0
   11.2841    1.7670   23.6644 C   0  0  0  0  0  0  0  0  0  0  0  0
   12.5845    1.0730   23.2611 C   0  0  0  0  0  0  0  0  0  0  0  0
   12.6655   -0.3651   23.8099 C   0  0  2  0  0  0  0  0  0  0  0  0
   12.8696   -0.3963   25.3380 C   0  0  0  0  0  0  0  0  0  0  0  0
   13.5089   -1.7543   25.6317 C   0  0  0  0  0  0  0  0  0  0  0  0
   14.1577   -2.2129   24.3270 C   0  0  0  0  0  0  0  0  0  0  0  0
   13.9533   -1.0663   23.3401 C   0  0  1  0  0  0  0  0  0  0  0  0
   13.8570   -1.5397   22.0093 O   0  0  0  0  0  0  0  0  0  0  0  0
   11.3966   -1.1389   23.3816 C   0  0  0  0  0  0  0  0  0  0  0  0
  1  2  2  0
  2  3  2  0
  2  4  1  0
  4  5  2  0
  5  6  1  0
  6  7  2  0
  7  8  1  0
  7  9  1  0
  9 10  2  0
 10 11  1  0
  2 12  1  0
 12 13  1  0
 13 14  1  0
 14 15  1  0
 16 15  1  6
 16 17  1  0
 17 18  1  0
 18 19  1  0
 19 20  1  0
 20 21  1  6
 16 22  1  0
 10  4  1  0
 22 12  1  0
 20 16  1  0
M  END
