
     RDKit          3D

 23 25  0  0  0  0  0  0  0  0999 V2000
    6.8203    0.1644   25.2080 C   0  0  0  0  0  0  0  0  0  0  0  0
    7.5659   -0.8291   24.5157 O   0  0  0  0  0  0  0  0  0  0  0  0
    8.5140   -0.2674   23.5988 C   0  0  1  0  0  0  0  0  0  0  0  0
    9.9494   -0.3404   24.1710 C   0  0  0  0  0  0  0  0  0  0  0  0
   10.5247   -1.5930   23.6352 N   0  0  0  0  0  0  0  0  0  0  0  0
   11.3048   -2.3762   24.4930 C   0  0  0  0  0  0  0  0  0  0  0  0
   10.7657   -3.5415   24.9197 N   0  0  0  0  0  0  0  0  0  0  0  0
   11.4769   -4.3185   25.7362 C   0  0  0  0  0  0  0  0  0  0  0  0
   10.8877   -5.4813   26.1852 N   0  0  0  0  0  0  0  0  0  0  0  0
   12.6940   -4.0325   26.1903 N   0  0  0  0  0  0  0  0  0  0  0  0
   13.2595   -2.8900   25.7415 C   0  0  0  0  0  0  0  0  0  0  0  0
   14.6540   -2.6280   26.2330 C   0  0  0  0  0  0  0  0  0  0  0  0
   12.6038   -2.0212   24.8755 C   0  0  0  0  0  0  0  0  0  0  0  0
   13.4176   -0.6169   24.2718 Cl  0  0  0  0  0  0  0  0  0  0  0  0
    9.4937   -2.2919   22.8567 C   0  0  0  0  0  0  0  0  0  0  0  0
    8.6104   -1.1506   22.3485 C   0  0  1  0  0  0  0  0  0  0  0  0
    7.2814   -1.6523   21.7878 C   0  0  0  0  0  0  0  0  0  0  0  0
    6.7360   -0.7278   20.7635 C   0  0  0  0  0  0  0  0  0  0  0  0
    5.9691   -0.8939   19.6367 C   0  0  0  0  0  0  0  0  0  0  0  0
    5.8295    0.4114   19.1145 C   0  0  0  0  0  0  0  0  0  0  0  0
    5.1008    0.8455   17.9024 C   0  0  0  0  0  0  0  0  0  0  0  0
    6.4710    1.3096   19.8717 N   0  0  0  0  0  0  0  0  0  0  0  0
    7.0305    0.5914   20.9131 O   0  0  0  0  0  0  0  0  0  0  0  0
  1  2  1  0
  3  2  1  1
  3  4  1  0
  4  5  1  0
  5  6  1  0
  6  7  2  0
  7  8  1  0
  8  9  1  0
  8 10  2  0
 10 11  1  0
 11 12  1  0
 11 13  2  0
 13 14  1  0
  5 15  1  0
 15 16  1  0
 16 17  1  1
 17 18  1  0
 18 19  2  0
 19 20  1  0
 20 21  1  0
 20 22  2  0
 22 23  1  0
 16  3  1  0
 23 18  1  0
 13  6  1  0
M  END
