
     RDKit          3D

 23 24  0  0  0  0  0  0  0  0999 V2000
    5.2228    0.7113   18.1855 C   0  0  0  0  0  0  0  0  0  0  0  0
    5.6545   -0.1046   19.3910 C   0  0  0  0  0  0  0  0  0  0  0  0
    7.0257    0.3249   19.9025 C   0  0  0  0  0  0  0  0  0  0  0  0
    7.0298    0.1798   21.3289 O   0  0  0  0  0  0  0  0  0  0  0  0
    8.2500   -0.2582   21.7763 C   0  0  0  0  0  0  0  0  0  0  0  0
    8.5353   -1.6276   21.7680 C   0  0  0  0  0  0  0  0  0  0  0  0
    9.7872   -2.0768   22.1905 C   0  0  0  0  0  0  0  0  0  0  0  0
   10.7587   -1.1510   22.5876 C   0  0  0  0  0  0  0  0  0  0  0  0
   12.0578   -1.6523   23.0765 C   0  0  0  0  0  0  0  0  0  0  0  0
   13.0035   -1.6232   22.2877 O   0  0  0  0  0  0  0  0  0  0  0  0
   12.1702   -2.1461   24.3752 N   0  0  0  0  0  0  0  0  0  0  0  0
   13.3823   -2.7460   24.9604 C   0  0  0  0  0  0  0  0  0  0  0  0
   14.1749   -1.8177   25.8886 C   0  0  0  0  0  0  0  0  0  0  0  0
   15.1779   -2.5309   26.6009 O   0  0  0  0  0  0  0  0  0  0  0  0
   10.9590   -2.1348   25.1916 C   0  0  0  0  0  0  0  0  0  0  0  0
   10.4823   -3.5413   25.3543 C   0  0  0  0  0  0  0  0  0  0  0  0
   10.9181   -4.4429   26.2148 N   0  0  0  0  0  0  0  0  0  0  0  0
   10.1328   -5.5513   26.0140 C   0  0  0  0  0  0  0  0  0  0  0  0
    9.1865   -5.3107   25.0467 C   0  0  0  0  0  0  0  0  0  0  0  0
    9.4154   -4.0278   24.6359 N   0  0  0  0  0  0  0  0  0  0  0  0
   10.4787    0.2202   22.5969 C   0  0  0  0  0  0  0  0  0  0  0  0
    9.2248    0.6654   22.1782 C   0  0  0  0  0  0  0  0  0  0  0  0
    8.9025    2.3608   22.1871 Cl  0  0  0  0  0  0  0  0  0  0  0  0
  1  2  1  0
  2  3  1  0
  3  4  1  0
  4  5  1  0
  5  6  2  0
  6  7  1  0
  7  8  2  0
  8  9  1  0
  9 10  2  0
  9 11  1  0
 11 12  1  0
 12 13  1  0
 13 14  1  0
 11 15  1  0
 15 16  1  0
 16 17  2  0
 17 18  1  0
 18 19  2  0
 19 20  1  0
  8 21  1  0
 21 22  2  0
 22 23  1  0
 22  5  1  0
 20 16  1  0
M  END
