
     RDKit          3D

 24 26  0  0  0  0  0  0  0  0999 V2000
    9.8889   -5.1716   24.9494 O   0  0  0  0  0  0  0  0  0  0  0  0
    9.9839   -4.0167   24.5212 C   0  0  0  0  0  0  0  0  0  0  0  0
   11.2210   -3.1989   24.8651 C   0  0  0  0  0  0  0  0  0  0  0  0
   12.2711   -4.0318   26.1047 S   0  0  0  0  0  0  0  0  0  0  0  0
   13.8685   -3.1713   25.8346 C   0  0  0  0  0  0  0  0  0  0  0  0
   13.8146   -1.6744   26.1855 C   0  0  0  0  0  0  0  0  0  0  0  0
   13.2879   -0.7628   25.1664 N   0  0  0  0  0  0  0  0  0  0  0  0
   13.9983   -0.7545   23.8938 C   0  0  0  0  0  0  0  0  0  0  0  0
   13.3497    0.4181   23.1737 C   0  0  0  0  0  0  0  0  0  0  0  0
   12.8958    1.3628   24.2837 C   0  0  0  0  0  0  0  0  0  0  0  0
   13.2040    0.6341   25.5859 C   0  0  0  0  0  0  0  0  0  0  0  0
    8.9998   -3.4513   23.7077 N   0  0  0  0  0  0  0  0  0  0  0  0
    9.0859   -2.0976   23.1559 C   0  0  0  0  0  0  0  0  0  0  0  0
    8.3174   -1.9580   21.8497 C   0  0  0  0  0  0  0  0  0  0  0  0
    6.8755   -2.4467   21.9986 C   0  0  0  0  0  0  0  0  0  0  0  0
    6.2676   -2.3546   20.7059 O   0  0  0  0  0  0  0  0  0  0  0  0
    5.8743   -1.1333   20.2461 C   0  0  0  0  0  0  0  0  0  0  0  0
    5.8126   -1.0136   18.8589 C   0  0  0  0  0  0  0  0  0  0  0  0
    5.4203    0.1897   18.2776 C   0  0  0  0  0  0  0  0  0  0  0  0
    5.0977    1.2448   19.1130 C   0  0  0  0  0  0  0  0  0  0  0  0
    5.1409    1.1709   20.4600 N   0  0  0  0  0  0  0  0  0  0  0  0
    5.5261   -0.0158   20.9934 C   0  0  0  0  0  0  0  0  0  0  0  0
    6.8927   -3.8980   22.4769 C   0  0  0  0  0  0  0  0  0  0  0  0
    7.6586   -4.0300   23.7851 C   0  0  0  0  0  0  0  0  0  0  0  0
  1  2  2  0
  2  3  1  0
  3  4  1  0
  4  5  1  0
  5  6  1  0
  6  7  1  0
  7  8  1  0
  8  9  1  0
  9 10  1  0
 10 11  1  0
  2 12  1  0
 12 13  1  0
 13 14  1  0
 14 15  1  0
 15 16  1  0
 16 17  1  0
 17 18  2  0
 18 19  1  0
 19 20  2  0
 20 21  1  0
 21 22  2  0
 15 23  1  0
 23 24  1  0
 11  7  1  0
 24 12  1  0
 22 17  1  0
M  END
