
     RDKit          3D

 25 28  0  0  0  0  0  0  0  0999 V2000
   10.7343    6.6871   23.8568 C   0  0  0  0  0  0  0  0  0  0  0  0
   12.2521    6.7519   23.8711 C   0  0  0  0  0  0  0  0  0  0  0  0
   12.8514    5.4123   23.6871 C   0  0  0  0  0  0  0  0  0  0  0  0
   14.0924    5.0155   23.8721 N   0  0  0  0  0  0  0  0  0  0  0  0
   14.1185    3.6696   23.5712 N   0  0  0  0  0  0  0  0  0  0  0  0
   12.8902    3.3438   23.2228 C   0  0  0  0  0  0  0  0  0  0  0  0
   12.3450    2.0190   22.8091 C   0  0  0  0  0  0  0  0  0  0  0  0
   12.4783    0.9809   23.8466 N   0  0  0  0  0  0  0  0  0  0  0  0
   11.7173   -0.2266   23.5075 C   0  0  0  0  0  0  0  0  0  0  0  0
   12.2284   -1.2333   24.5381 C   0  0  1  0  0  0  0  0  0  0  0  0
   12.1110   -2.6926   24.0800 C   0  0  0  0  0  0  0  0  0  0  0  0
   11.2002   -3.5248   24.9588 C   0  0  0  0  0  0  0  0  0  0  0  0
   11.7254   -4.0578   26.1414 C   0  0  0  0  0  0  0  0  0  0  0  0
   10.9103   -4.8350   26.9396 C   0  0  0  0  0  0  0  0  0  0  0  0
    9.6269   -5.1187   26.6484 N   0  0  0  0  0  0  0  0  0  0  0  0
    9.1062   -4.6088   25.5205 C   0  0  0  0  0  0  0  0  0  0  0  0
    7.7802   -4.8982   25.2278 C   0  0  0  0  0  0  0  0  0  0  0  0
    7.1521   -4.4106   24.0808 C   0  0  0  0  0  0  0  0  0  0  0  0
    7.8626   -3.6103   23.1991 C   0  0  0  0  0  0  0  0  0  0  0  0
    9.1963   -3.3045   23.4690 C   0  0  0  0  0  0  0  0  0  0  0  0
    9.8458   -3.7964   24.6274 C   0  0  0  0  0  0  0  0  0  0  0  0
   13.6904   -0.8176   24.7668 C   0  0  2  0  0  0  0  0  0  0  0  0
   13.9050   -0.6251   26.1650 O   0  0  0  0  0  0  0  0  0  0  0  0
   13.8623    0.5023   24.0020 C   0  0  0  0  0  0  0  0  0  0  0  0
   12.0250    4.4063   23.2646 O   0  0  0  0  0  0  0  0  0  0  0  0
  1  2  1  0
  2  3  1  0
  3  4  2  0
  4  5  1  0
  5  6  2  0
  6  7  1  0
  7  8  1  0
  8  9  1  0
  9 10  1  0
 10 11  1  6
 11 12  1  0
 12 13  2  0
 13 14  1  0
 14 15  2  0
 15 16  1  0
 16 17  2  0
 17 18  1  0
 18 19  2  0
 19 20  1  0
 20 21  2  0
 10 22  1  0
 22 23  1  1
 22 24  1  0
  6 25  1  0
 25  3  1  0
 24  8  1  0
 21 12  1  0
 21 16  1  0
M  END
