
     RDKit          3D

 25 28  0  0  0  0  0  0  0  0999 V2000
   11.2852    4.1691   23.0306 C   0  0  0  0  0  0  0  0  0  0  0  0
   12.4164    4.5358   22.3394 C   0  0  0  0  0  0  0  0  0  0  0  0
   13.4103    3.6332   22.5407 O   0  0  0  0  0  0  0  0  0  0  0  0
   12.9166    2.6736   23.3784 C   0  0  0  0  0  0  0  0  0  0  0  0
   13.8381    1.5566   23.7394 C   0  0  0  0  0  0  0  0  0  0  0  0
   13.1257    0.3134   24.0841 N   0  0  0  0  0  0  0  0  0  0  0  0
   12.9419   -0.5648   22.9161 C   0  0  0  0  0  0  0  0  0  0  0  0
   12.7397   -2.0439   23.2773 C   0  0  0  0  0  0  0  0  0  0  0  0
   12.0299   -2.1790   24.6257 C   0  0  0  0  0  0  0  0  0  0  0  0
   11.7717   -3.6043   24.8810 N   0  0  0  0  0  0  0  0  0  0  0  0
   10.5949   -3.8603   25.7127 C   0  0  2  0  0  0  0  0  0  0  0  0
   10.7282   -4.9009   26.8277 C   0  0  0  0  0  0  0  0  0  0  0  0
    9.4255   -5.4744   27.0326 O   0  0  0  0  0  0  0  0  0  0  0  0
    8.5578   -5.0025   25.9899 C   0  0  0  0  0  0  0  0  0  0  0  0
    9.4620   -4.4711   24.8885 C   0  0  1  0  0  0  0  0  0  0  0  0
    8.7818   -3.4802   23.9400 C   0  0  0  0  0  0  0  0  0  0  0  0
    7.6514   -4.1000   23.1566 C   0  0  0  0  0  0  0  0  0  0  0  0
    7.5645   -5.4848   22.9935 C   0  0  0  0  0  0  0  0  0  0  0  0
    6.5090   -6.0018   22.2563 C   0  0  0  0  0  0  0  0  0  0  0  0
    5.5514   -5.2451   21.6786 N   0  0  0  0  0  0  0  0  0  0  0  0
    5.6525   -3.9100   21.8491 C   0  0  0  0  0  0  0  0  0  0  0  0
    6.6681   -3.2990   22.5690 C   0  0  0  0  0  0  0  0  0  0  0  0
   12.8826   -1.5134   25.7215 C   0  0  0  0  0  0  0  0  0  0  0  0
   13.7784   -0.3867   25.1874 C   0  0  0  0  0  0  0  0  0  0  0  0
   11.6046    2.9622   23.6983 C   0  0  0  0  0  0  0  0  0  0  0  0
  1  2  2  0
  2  3  1  0
  3  4  1  0
  4  5  1  0
  5  6  1  0
  6  7  1  0
  7  8  1  0
  8  9  1  0
  9 10  1  0
 11 10  1  6
 11 12  1  0
 12 13  1  0
 13 14  1  0
 14 15  1  0
 15 16  1  1
 16 17  1  0
 17 18  2  0
 18 19  1  0
 19 20  2  0
 20 21  1  0
 21 22  2  0
  9 23  1  0
 23 24  1  0
  4 25  2  0
 25  1  1  0
 24  6  1  0
 15 11  1  0
 22 17  1  0
M  END
