
     RDKit          3D

 25 28  0  0  0  0  0  0  0  0999 V2000
    6.3145   -0.8077   18.9816 C   0  0  0  0  0  0  0  0  0  0  0  0
    6.8442   -1.4512   20.2246 C   0  0  0  0  0  0  0  0  0  0  0  0
    8.0281   -1.0180   20.6906 N   0  0  0  0  0  0  0  0  0  0  0  0
    8.4421   -1.6630   21.7787 C   0  0  0  0  0  0  0  0  0  0  0  0
    7.7825   -2.6774   22.4160 C   0  0  0  0  0  0  0  0  0  0  0  0
    6.5838   -3.0556   21.8824 C   0  0  0  0  0  0  0  0  0  0  0  0
    5.7503   -4.1317   22.5019 C   0  0  0  0  0  0  0  0  0  0  0  0
    6.1075   -2.4527   20.7697 N   0  0  0  0  0  0  0  0  0  0  0  0
    8.5226   -3.0968   23.6189 C   0  0  0  0  0  0  0  0  0  0  0  0
    9.8621   -2.4075   23.3146 C   0  0  2  0  0  0  0  0  0  0  0  0
   10.6485   -1.9332   24.5555 C   0  0  0  0  0  0  0  0  0  0  0  0
   12.0896   -2.2543   24.6014 N   0  0  0  0  0  0  0  0  0  0  0  0
   12.7323   -2.0522   23.2909 C   0  0  0  0  0  0  0  0  0  0  0  0
   12.9084   -0.5809   22.8991 C   0  0  0  0  0  0  0  0  0  0  0  0
   13.6594    0.2076   23.9820 C   0  0  0  0  0  0  0  0  0  0  0  0
   13.7146    1.7198   23.6880 C   0  0  0  0  0  0  0  0  0  0  0  0
   12.4040    2.3395   23.1965 C   0  0  0  0  0  0  0  0  0  0  0  0
   12.4523    3.7841   23.0857 N   0  0  0  0  0  0  0  0  0  0  0  0
   11.6560    4.6805   23.7398 C   0  0  0  0  0  0  0  0  0  0  0  0
   12.0612    5.9254   23.3196 C   0  0  0  0  0  0  0  0  0  0  0  0
   13.0991    5.6721   22.4044 C   0  0  0  0  0  0  0  0  0  0  0  0
   13.3381    4.3668   22.2555 N   0  0  0  0  0  0  0  0  0  0  0  0
   13.0087   -0.0356   25.3542 C   0  0  0  0  0  0  0  0  0  0  0  0
   12.8417   -1.5300   25.6369 C   0  0  0  0  0  0  0  0  0  0  0  0
    9.6381   -1.3151   22.3863 O   0  0  0  0  0  0  0  0  0  0  0  0
  1  2  1  0
  2  3  2  0
  3  4  1  0
  4  5  2  0
  5  6  1  0
  6  7  1  0
  6  8  2  0
  5  9  1  0
  9 10  1  0
 10 11  1  1
 11 12  1  0
 12 13  1  0
 13 14  1  0
 14 15  1  0
 15 16  1  0
 16 17  1  0
 17 18  1  0
 18 19  1  0
 19 20  2  0
 20 21  1  0
 21 22  2  0
 15 23  1  0
 23 24  1  0
 10 25  1  0
  8  2  1  0
 24 12  1  0
 25  4  1  0
 22 18  1  0
M  END
