
     RDKit          3D

 25 28  0  0  0  0  0  0  0  0999 V2000
    3.6797   -5.8880   26.9735 C   0  0  0  0  0  0  0  0  0  0  0  0
    5.1093   -5.6699   26.9645 N   0  0  0  0  0  0  0  0  0  0  0  0
    5.8760   -5.4835   28.0835 C   0  0  0  0  0  0  0  0  0  0  0  0
    7.1751   -5.2885   27.6760 C   0  0  0  0  0  0  0  0  0  0  0  0
    7.2075   -5.3748   26.2534 C   0  0  0  0  0  0  0  0  0  0  0  0
    5.8927   -5.6056   25.8299 C   0  0  0  0  0  0  0  0  0  0  0  0
    5.5567   -5.7217   24.4699 C   0  0  0  0  0  0  0  0  0  0  0  0
    6.5747   -5.5871   23.5199 C   0  0  0  0  0  0  0  0  0  0  0  0
    7.8908   -5.3599   23.9101 C   0  0  0  0  0  0  0  0  0  0  0  0
    8.2198   -5.2754   25.2708 C   0  0  0  0  0  0  0  0  0  0  0  0
    9.6263   -5.0308   25.6457 C   0  0  0  0  0  0  0  0  0  0  0  0
   10.2262   -5.9387   26.2179 O   0  0  0  0  0  0  0  0  0  0  0  0
   10.2077   -3.7938   25.3369 N   0  0  0  0  0  0  0  0  0  0  0  0
    9.3546   -2.8265   24.6540 C   0  0  0  0  0  0  0  0  0  0  0  0
    9.8154   -1.3925   24.8965 C   0  0  0  0  0  0  0  0  0  0  0  0
   11.3135   -1.1791   24.5615 C   0  0  1  0  0  0  0  0  0  0  0  0
   11.5518   -1.3528   23.0356 C   0  0  0  0  0  0  0  0  0  0  0  0
   10.4967   -0.7463   22.2924 O   0  0  0  0  0  0  0  0  0  0  0  0
   11.7092    0.2543   24.9993 C   0  0  0  0  0  0  0  0  0  0  0  0
   13.2159    0.4779   24.9123 C   0  0  0  0  0  0  0  0  0  0  0  0
   13.9912   -0.6276   25.6274 C   0  0  0  0  0  0  0  0  0  0  0  0
   13.6071   -1.9777   25.1664 N   0  0  0  0  0  0  0  0  0  0  0  0
   14.4448   -2.9681   25.8510 C   0  0  0  0  0  0  0  0  0  0  0  0
   12.1531   -2.2014   25.3943 C   0  0  2  0  0  0  0  0  0  0  0  0
   11.6559   -3.6468   25.1224 C   0  0  0  0  0  0  0  0  0  0  0  0
  1  2  1  0
  2  3  1  0
  3  4  2  0
  4  5  1  0
  5  6  2  0
  6  7  1  0
  7  8  2  0
  8  9  1  0
  9 10  2  0
 10 11  1  0
 11 12  2  0
 11 13  1  0
 13 14  1  0
 14 15  1  0
 15 16  1  0
 16 17  1  6
 17 18  1  0
 16 19  1  0
 19 20  1  0
 20 21  1  0
 21 22  1  0
 22 23  1  0
 22 24  1  0
 24 25  1  6
  6  2  1  0
 25 13  1  0
 10  5  1  0
 24 16  1  0
M  END
