
     RDKit          3D

 24 25  0  0  0  0  0  0  0  0999 V2000
   13.7385    0.1276   23.2139 C   0  0  0  0  0  0  0  0  0  0  0  0
   12.6023   -0.0484   24.2245 C   0  0  2  0  0  0  0  0  0  0  0  0
   13.0682    0.1421   25.6831 C   0  0  0  0  0  0  0  0  0  0  0  0
   14.1598   -0.7297   26.0872 N   0  0  0  0  0  0  0  0  0  0  0  0
   14.1325   -2.0884   26.1906 C   0  0  0  0  0  0  0  0  0  0  0  0
   15.1019   -2.6764   26.6671 O   0  0  0  0  0  0  0  0  0  0  0  0
   12.9097   -2.8276   25.7170 C   0  0  0  0  0  0  0  0  0  0  0  0
   12.6355   -2.5660   24.2425 C   0  0  0  0  0  0  0  0  0  0  0  0
   11.8780   -1.3208   24.0367 N   0  0  0  0  0  0  0  0  0  0  0  0
   10.4819   -1.2807   24.1867 C   0  0  0  0  0  0  0  0  0  0  0  0
    9.8053   -2.2553   24.5101 O   0  0  0  0  0  0  0  0  0  0  0  0
    9.7743   -0.0011   23.9671 C   0  0  0  0  0  0  0  0  0  0  0  0
    9.9002    0.6349   22.7258 C   0  0  0  0  0  0  0  0  0  0  0  0
    9.2380    1.8448   22.5020 C   0  0  0  0  0  0  0  0  0  0  0  0
    8.4473    2.4083   23.5082 C   0  0  0  0  0  0  0  0  0  0  0  0
    8.3006    1.7579   24.7372 C   0  0  0  0  0  0  0  0  0  0  0  0
    8.9451    0.5388   24.9588 C   0  0  0  0  0  0  0  0  0  0  0  0
    8.8249   -0.0888   26.1702 O   0  0  0  0  0  0  0  0  0  0  0  0
    7.5232   -0.6737   26.3535 C   0  0  0  0  0  0  0  0  0  0  0  0
    7.0835   -1.2000   25.1780 F   0  0  0  0  0  0  0  0  0  0  0  0
    6.6567    0.3099   26.7089 F   0  0  0  0  0  0  0  0  0  0  0  0
    7.5913   -1.7656   27.4198 C   0  0  0  0  0  0  0  0  0  0  0  0
    7.8374   -1.2275   28.6520 F   0  0  0  0  0  0  0  0  0  0  0  0
    6.4067   -2.4315   27.5214 F   0  0  0  0  0  0  0  0  0  0  0  0
  2  1  1  6
  2  3  1  0
  3  4  1  0
  4  5  1  0
  5  6  2  0
  5  7  1  0
  7  8  1  0
  8  9  1  0
  9 10  1  0
 10 11  2  0
 10 12  1  0
 12 13  2  0
 13 14  1  0
 14 15  2  0
 15 16  1  0
 16 17  2  0
 17 18  1  0
 18 19  1  0
 19 20  1  0
 19 21  1  0
 19 22  1  0
 22 23  1  0
 22 24  1  0
  9  2  1  0
 17 12  1  0
M  END
