
     RDKit          3D

 25 28  0  0  0  0  0  0  0  0999 V2000
    5.6021   -3.0005   20.4906 O   0  0  0  0  0  0  0  0  0  0  0  0
    6.0074   -1.8881   20.8160 C   0  0  0  0  0  0  0  0  0  0  0  0
    5.5855   -0.7509   19.9900 C   0  0  0  0  0  0  0  0  0  0  0  0
    4.8375    0.2818   20.5562 C   0  0  0  0  0  0  0  0  0  0  0  0
    4.4742    1.3642   19.7587 C   0  0  0  0  0  0  0  0  0  0  0  0
    4.8760    1.3676   18.4290 C   0  0  0  0  0  0  0  0  0  0  0  0
    5.5991    0.3785   17.8542 N   0  0  0  0  0  0  0  0  0  0  0  0
    5.9404   -0.6490   18.6573 C   0  0  0  0  0  0  0  0  0  0  0  0
    6.6302   -1.6164   18.0052 O   0  0  0  0  0  0  0  0  0  0  0  0
    6.9096   -1.6513   21.8642 N   0  0  0  0  0  0  0  0  0  0  0  0
    7.4252   -0.3035   22.1368 C   0  0  0  0  0  0  0  0  0  0  0  0
    6.9631    0.2382   23.4933 C   0  0  0  0  0  0  0  0  0  0  0  0
    6.9978   -0.7896   24.6354 C   0  0  0  0  0  0  0  0  0  0  0  0
    7.7422   -2.0983   24.2405 C   0  0  1  0  0  0  0  0  0  0  0  0
    9.2787   -1.8370   24.1002 C   0  0  0  0  0  0  0  0  0  0  0  0
    9.9701   -2.0978   22.9669 C   0  0  0  0  0  0  0  0  0  0  0  0
   11.4245   -1.7781   22.7581 C   0  0  0  0  0  0  0  0  0  0  0  0
   11.9386   -0.8864   23.7445 O   0  0  0  0  0  0  0  0  0  0  0  0
   11.5690   -1.2981   25.0555 C   0  0  0  0  0  0  0  0  0  0  0  0
   10.0518   -1.2002   25.2374 C   0  0  0  0  0  0  0  0  0  0  0  0
    7.5536   -3.1641   25.3490 C   0  0  0  0  0  0  0  0  0  0  0  0
    7.9979   -4.4519   24.9108 O   0  0  0  0  0  0  0  0  0  0  0  0
    7.2123   -4.9634   23.8384 C   0  0  0  0  0  0  0  0  0  0  0  0
    7.2794   -4.0668   22.6091 C   0  0  0  0  0  0  0  0  0  0  0  0
    6.9356   -2.6157   22.9890 C   0  0  2  0  0  0  0  0  0  0  0  0
  1  2  2  0
  2  3  1  0
  3  4  2  0
  4  5  1  0
  5  6  2  0
  6  7  1  0
  7  8  2  0
  8  9  1  0
  2 10  1  0
 10 11  1  0
 11 12  1  0
 12 13  1  0
 13 14  1  0
 14 15  1  6
 15 16  2  0
 16 17  1  0
 17 18  1  0
 18 19  1  0
 19 20  1  0
 14 21  1  0
 21 22  1  0
 22 23  1  0
 23 24  1  0
 25 24  1  6
  8  3  1  0
 25 10  1  0
 25 14  1  0
 20 15  1  0
M  END
