
     RDKit          3D

 25 27  0  0  0  0  0  0  0  0999 V2000
    4.9011   -3.9726   21.9595 O   0  0  0  0  0  0  0  0  0  0  0  0
    6.0398   -4.4024   21.8865 C   0  0  0  0  0  0  0  0  0  0  0  0
    6.2960   -5.4949   21.1349 O   0  0  0  0  0  0  0  0  0  0  0  0
    7.2857   -3.8086   22.4887 C   0  0  1  0  0  0  0  0  0  0  0  0
    7.4205   -2.3393   22.0967 C   0  0  0  0  0  0  0  0  0  0  0  0
    8.6143   -1.7330   22.7002 N   0  0  0  0  0  0  0  0  0  0  0  0
    9.1577   -0.6281   22.0322 C   0  0  0  0  0  0  0  0  0  0  0  0
    8.7108   -0.1755   20.9813 O   0  0  0  0  0  0  0  0  0  0  0  0
   10.3606    0.0237   22.5938 C   0  0  0  0  0  0  0  0  0  0  0  0
   11.5265   -0.7127   22.8179 C   0  0  0  0  0  0  0  0  0  0  0  0
   12.6529   -0.0708   23.3241 C   0  0  0  0  0  0  0  0  0  0  0  0
   12.6150    1.3026   23.5879 C   0  0  0  0  0  0  0  0  0  0  0  0
   11.4584    2.0664   23.3436 C   0  0  0  0  0  0  0  0  0  0  0  0
   11.4333    3.5180   23.5994 C   0  0  0  0  0  0  0  0  0  0  0  0
   10.5370    4.0701   24.5331 C   0  0  0  0  0  0  0  0  0  0  0  0
   10.5065    5.4466   24.7828 C   0  0  0  0  0  0  0  0  0  0  0  0
   11.3720    6.3010   24.1036 C   0  0  0  0  0  0  0  0  0  0  0  0
   12.2669    5.7783   23.1743 C   0  0  0  0  0  0  0  0  0  0  0  0
   12.2915    4.4052   22.9302 C   0  0  0  0  0  0  0  0  0  0  0  0
   13.1778    3.9434   22.0335 F   0  0  0  0  0  0  0  0  0  0  0  0
   10.3303    1.4023   22.8342 C   0  0  0  0  0  0  0  0  0  0  0  0
    8.7100   -1.8792   24.1554 C   0  0  0  0  0  0  0  0  0  0  0  0
    8.5748   -3.3383   24.5865 C   0  0  0  0  0  0  0  0  0  0  0  0
    7.3110   -3.9777   24.0093 C   0  0  1  0  0  0  0  0  0  0  0  0
    6.1704   -3.3580   24.6051 O   0  0  0  0  0  0  0  0  0  0  0  0
  1  2  2  0
  2  3  1  0
  4  2  1  1
  4  5  1  0
  5  6  1  0
  6  7  1  0
  7  8  2  0
  7  9  1  0
  9 10  2  0
 10 11  1  0
 11 12  2  0
 12 13  1  0
 13 14  1  0
 14 15  2  0
 15 16  1  0
 16 17  2  0
 17 18  1  0
 18 19  2  0
 19 20  1  0
 13 21  2  0
  6 22  1  0
 22 23  1  0
 23 24  1  0
 24 25  1  1
 24  4  1  0
 21  9  1  0
 19 14  1  0
M  END
