
     RDKit          3D

 25 27  0  0  0  0  0  0  0  0999 V2000
   12.5277   -1.2898   22.6361 C   0  0  0  0  0  0  0  0  0  0  0  0
   13.0467   -1.8708   23.8955 C   0  0  0  0  0  0  0  0  0  0  0  0
   14.3994   -2.0428   24.0806 N   0  0  0  0  0  0  0  0  0  0  0  0
   14.5280   -2.5735   25.2734 C   0  0  0  0  0  0  0  0  0  0  0  0
   13.3163   -2.7638   25.8657 N   0  0  0  0  0  0  0  0  0  0  0  0
   12.3476   -2.3085   25.0062 C   0  0  0  0  0  0  0  0  0  0  0  0
   10.8898   -2.3577   25.3079 C   0  0  0  0  0  0  0  0  0  0  0  0
   10.2102   -3.4856   24.6268 N   0  0  0  0  0  0  0  0  0  0  0  0
   10.6444   -4.7746   25.2337 C   0  0  0  0  0  0  0  0  0  0  0  0
   10.5596   -4.7632   26.7819 C   0  0  0  0  0  0  0  0  0  0  0  0
    9.1856   -4.9175   27.2996 N   0  0  0  0  0  0  0  0  0  0  0  0
    9.1990   -4.9202   28.7654 C   0  0  0  0  0  0  0  0  0  0  0  0
    8.5474   -6.1412   26.8112 C   0  0  0  0  0  0  0  0  0  0  0  0
    8.7397   -3.3323   24.7825 C   0  0  0  0  0  0  0  0  0  0  0  0
    8.0379   -3.0593   23.4598 C   0  0  0  0  0  0  0  0  0  0  0  0
    7.2077   -3.9643   22.9146 C   0  0  0  0  0  0  0  0  0  0  0  0
    6.5102   -3.6407   21.6462 C   0  0  0  0  0  0  0  0  0  0  0  0
    5.7828   -4.4713   21.1135 O   0  0  0  0  0  0  0  0  0  0  0  0
    6.7134   -2.2879   21.0743 C   0  0  0  0  0  0  0  0  0  0  0  0
    6.0444   -1.9032   19.9084 C   0  0  0  0  0  0  0  0  0  0  0  0
    6.2508   -0.6260   19.3889 C   0  0  0  0  0  0  0  0  0  0  0  0
    7.1244    0.2545   20.0296 C   0  0  0  0  0  0  0  0  0  0  0  0
    7.7921   -0.1355   21.1950 C   0  0  0  0  0  0  0  0  0  0  0  0
    7.5772   -1.4038   21.7403 C   0  0  0  0  0  0  0  0  0  0  0  0
    8.2890   -1.8329   22.8682 N   0  0  0  0  0  0  0  0  0  0  0  0
  1  2  1  0
  2  3  1  0
  3  4  2  0
  4  5  1  0
  5  6  1  0
  6  7  1  0
  7  8  1  0
  8  9  1  0
  9 10  1  0
 10 11  1  0
 11 12  1  0
 11 13  1  0
  8 14  1  0
 14 15  1  0
 15 16  2  0
 16 17  1  0
 17 18  2  0
 17 19  1  0
 19 20  2  0
 20 21  1  0
 21 22  2  0
 22 23  1  0
 23 24  2  0
 24 25  1  0
  6  2  2  0
 25 15  1  0
 24 19  1  0
M  END
