
     RDKit          3D

 23 26  0  0  0  0  0  0  0  0999 V2000
   13.2558    6.0127   22.5681 C   0  0  0  0  0  0  0  0  0  0  0  0
   13.6207    4.7403   23.0935 O   0  0  0  0  0  0  0  0  0  0  0  0
   12.5350    3.9134   23.3199 C   0  0  0  0  0  0  0  0  0  0  0  0
   12.8150    2.6914   23.8825 C   0  0  0  0  0  0  0  0  0  0  0  0
   11.7468    1.8484   24.1076 C   0  0  0  0  0  0  0  0  0  0  0  0
   11.9385    0.5875   24.6886 N   0  0  0  0  0  0  0  0  0  0  0  0
   10.8975    0.1338   25.6175 C   0  0  0  0  0  0  0  0  0  0  0  0
    9.7233   -0.4986   24.8759 C   0  0  0  0  0  0  0  0  0  0  0  0
   10.1447   -1.5723   23.8540 C   0  0  0  0  0  0  0  0  0  0  0  0
   11.3730   -1.1392   23.0292 C   0  0  0  0  0  0  0  0  0  0  0  0
   12.4808   -0.4803   23.8438 C   0  0  0  0  0  0  0  0  0  0  0  0
    9.0801   -1.6756   22.8474 O   0  0  0  0  0  0  0  0  0  0  0  0
    7.8878   -2.3438   23.2769 C   0  0  0  0  0  0  0  0  0  0  0  0
    8.1678   -3.8321   23.4750 C   0  0  0  0  0  0  0  0  0  0  0  0
    9.3798   -3.9996   24.3305 C   0  0  0  0  0  0  0  0  0  0  0  0
    9.7560   -5.1738   25.0453 C   0  0  0  0  0  0  0  0  0  0  0  0
   10.9357   -4.9989   25.7300 C   0  0  0  0  0  0  0  0  0  0  0  0
   11.5770   -3.4334   25.5087 S   0  0  0  0  0  0  0  0  0  0  0  0
   10.2912   -2.9637   24.4846 C   0  0  0  0  0  0  0  0  0  0  0  0
   10.4983    2.2535   23.8102 N   0  0  0  0  0  0  0  0  0  0  0  0
   10.3285    3.4652   23.2746 C   0  0  0  0  0  0  0  0  0  0  0  0
    9.0399    3.8352   22.9421 N   0  0  0  0  0  0  0  0  0  0  0  0
   11.3037    4.3205   22.9879 N   0  0  0  0  0  0  0  0  0  0  0  0
  1  2  1  0
  2  3  1  0
  3  4  2  0
  4  5  1  0
  5  6  1  0
  6  7  1  0
  7  8  1  0
  8  9  1  0
  9 10  1  0
 10 11  1  0
  9 12  1  0
 12 13  1  0
 13 14  1  0
 14 15  1  0
 15 16  1  0
 16 17  2  0
 17 18  1  0
 18 19  1  0
  5 20  2  0
 20 21  1  0
 21 22  1  0
 21 23  2  0
 23  3  1  0
 11  6  1  0
 19 15  2  0
 19  9  1  0
M  END
