
     RDKit          3D

 24 25  0  0  0  0  0  0  0  0999 V2000
   11.4025   -3.7784   25.7853 C   0  0  0  0  0  0  0  0  0  0  0  0
   12.7056   -3.0725   25.8198 C   0  0  0  0  0  0  0  0  0  0  0  0
   13.8423   -3.7340   26.2178 N   0  0  0  0  0  0  0  0  0  0  0  0
   14.8102   -2.8504   26.1397 C   0  0  0  0  0  0  0  0  0  0  0  0
   14.3487   -1.6380   25.7180 N   0  0  0  0  0  0  0  0  0  0  0  0
   12.9932   -1.7551   25.4973 C   0  0  0  0  0  0  0  0  0  0  0  0
   12.1002   -0.6636   25.0244 C   0  0  0  0  0  0  0  0  0  0  0  0
   11.6324   -0.8705   23.6575 N   0  0  0  0  0  0  0  0  0  0  0  0
   12.4461   -1.7261   22.7818 C   0  0  0  0  0  0  0  0  0  0  0  0
   13.7659   -1.0830   22.3391 C   0  0  0  0  0  0  0  0  0  0  0  0
   14.2478   -1.6467   21.1156 O   0  0  0  0  0  0  0  0  0  0  0  0
   10.5675   -0.1737   23.0775 C   0  0  0  0  0  0  0  0  0  0  0  0
   10.2258   -0.4268   21.9137 O   0  0  0  0  0  0  0  0  0  0  0  0
    9.8220    0.8915   23.9228 C   0  0  2  0  0  0  0  0  0  0  0  0
    8.5870    0.2281   24.5281 C   0  0  0  0  0  0  0  0  0  0  0  0
    9.3576    2.0046   23.1469 O   0  0  0  0  0  0  0  0  0  0  0  0
   10.1626    3.1010   23.3036 C   0  0  0  0  0  0  0  0  0  0  0  0
   11.5322    3.0377   23.0752 C   0  0  0  0  0  0  0  0  0  0  0  0
   12.3085    4.1860   23.2294 C   0  0  0  0  0  0  0  0  0  0  0  0
   11.7256    5.4039   23.6221 C   0  0  0  0  0  0  0  0  0  0  0  0
   12.6052    6.6159   23.7687 C   0  0  0  0  0  0  0  0  0  0  0  0
   10.3477    5.4448   23.9213 C   0  0  0  0  0  0  0  0  0  0  0  0
    9.6657    6.7087   24.3682 C   0  0  0  0  0  0  0  0  0  0  0  0
    9.5769    4.2838   23.7517 C   0  0  0  0  0  0  0  0  0  0  0  0
  1  2  1  0
  2  3  1  0
  3  4  2  0
  4  5  1  0
  5  6  1  0
  6  7  1  0
  7  8  1  0
  8  9  1  0
  9 10  1  0
 10 11  1  0
  8 12  1  0
 12 13  2  0
 12 14  1  0
 14 15  1  6
 14 16  1  0
 16 17  1  0
 17 18  2  0
 18 19  1  0
 19 20  2  0
 20 21  1  0
 20 22  1  0
 22 23  1  0
 22 24  2  0
  6  2  2  0
 24 17  1  0
M  END
