
     RDKit          3D

 24 26  0  0  0  0  0  0  0  0999 V2000
   14.0504   -2.2272   25.8620 C   0  0  0  0  0  0  0  0  0  0  0  0
   13.5037   -1.3734   24.7188 C   0  0  1  0  0  0  0  0  0  0  0  0
   14.1202   -0.0880   24.8434 O   0  0  0  0  0  0  0  0  0  0  0  0
   13.8823   -1.9778   23.3604 C   0  0  0  0  0  0  0  0  0  0  0  0
   12.9322   -1.5341   22.2517 C   0  0  0  0  0  0  0  0  0  0  0  0
   12.3125   -0.2915   22.5729 O   0  0  0  0  0  0  0  0  0  0  0  0
   11.3933   -0.3567   23.6820 C   0  0  0  0  0  0  0  0  0  0  0  0
   11.1627    1.0925   24.1561 C   0  0  0  0  0  0  0  0  0  0  0  0
   10.4981    1.9528   23.0829 C   0  0  0  0  0  0  0  0  0  0  0  0
    9.2667    1.3501   22.5731 N   0  0  0  0  0  0  0  0  0  0  0  0
    8.2148    2.0864   22.0285 C   0  0  0  0  0  0  0  0  0  0  0  0
    8.2720    3.3146   21.9064 O   0  0  0  0  0  0  0  0  0  0  0  0
    6.9787    1.3511   21.5282 C   0  0  0  0  0  0  0  0  0  0  0  0
    5.7446    2.2180   21.4986 C   0  0  0  0  0  0  0  0  0  0  0  0
    5.5036    3.1638   22.5094 C   0  0  0  0  0  0  0  0  0  0  0  0
    4.3522    3.9578   22.4852 C   0  0  0  0  0  0  0  0  0  0  0  0
    3.4243    3.8118   21.4550 C   0  0  0  0  0  0  0  0  0  0  0  0
    3.6530    2.8704   20.4581 C   0  0  0  0  0  0  0  0  0  0  0  0
    2.7577    2.7298   19.4707 F   0  0  0  0  0  0  0  0  0  0  0  0
    4.7976    2.0791   20.4801 C   0  0  0  0  0  0  0  0  0  0  0  0
    4.9909    1.1749   19.5080 F   0  0  0  0  0  0  0  0  0  0  0  0
    9.3823   -0.0458   22.1586 C   0  0  0  0  0  0  0  0  0  0  0  0
   10.0299   -0.9157   23.2310 C   0  0  0  0  0  0  0  0  0  0  0  0
   11.9815   -1.2193   24.8275 C   0  0  0  0  0  0  0  0  0  0  0  0
  2  1  1  1
  2  3  1  0
  2  4  1  0
  4  5  1  0
  5  6  1  0
  6  7  1  0
  7  8  1  0
  8  9  1  0
  9 10  1  0
 10 11  1  0
 11 12  2  0
 11 13  1  0
 13 14  1  0
 14 15  2  0
 15 16  1  0
 16 17  2  0
 17 18  1  0
 18 19  1  0
 18 20  2  0
 20 21  1  0
 10 22  1  0
 22 23  1  0
  7 24  1  0
 24  2  1  0
 23  7  1  0
 20 14  1  0
M  END
