
     RDKit          3D

 25 27  0  0  0  0  0  0  0  0999 V2000
    5.6248    0.7486   18.3539 C   0  0  0  0  0  0  0  0  0  0  0  0
    5.9187   -0.6403   18.2815 O   0  0  0  0  0  0  0  0  0  0  0  0
    6.3562   -1.2457   19.4313 C   0  0  0  0  0  0  0  0  0  0  0  0
    5.7000   -2.4462   19.7310 C   0  0  0  0  0  0  0  0  0  0  0  0
    6.0238   -3.1935   20.8722 C   0  0  0  0  0  0  0  0  0  0  0  0
    7.0295   -2.7133   21.7191 C   0  0  0  0  0  0  0  0  0  0  0  0
    7.5281   -3.2450   22.8824 N   0  0  0  0  0  0  0  0  0  0  0  0
    8.4587   -2.4059   23.2897 C   0  0  0  0  0  0  0  0  0  0  0  0
    9.3055   -2.5334   24.5139 C   0  0  0  0  0  0  0  0  0  0  0  0
   10.6359   -3.2409   24.2027 C   0  0  0  0  0  0  0  0  0  0  0  0
   11.6999   -2.9481   25.1903 N   0  0  0  0  0  0  0  0  0  0  0  0
   11.8804   -4.0549   26.1365 C   0  0  0  0  0  0  0  0  0  0  0  0
   12.9806   -2.5898   24.4955 C   0  0  2  0  0  0  0  0  0  0  0  0
   14.1791   -2.3075   25.4049 C   0  0  0  0  0  0  0  0  0  0  0  0
   12.7218   -1.4027   23.5322 C   0  0  0  0  0  0  0  0  0  0  0  0
   12.9677   -1.4272   22.3303 O   0  0  0  0  0  0  0  0  0  0  0  0
   12.1430   -0.3195   24.1721 N   0  0  0  0  0  0  0  0  0  0  0  0
   11.8179    0.8917   23.4594 C   0  0  0  0  0  0  0  0  0  0  0  0
   12.9598    1.9099   23.4627 C   0  0  0  0  0  0  0  0  0  0  0  0
   12.2898    3.2821   23.3752 C   0  0  0  0  0  0  0  0  0  0  0  0
   10.7871    3.0338   23.4759 C   0  0  0  0  0  0  0  0  0  0  0  0
   10.6632    1.6524   24.0975 C   0  0  0  0  0  0  0  0  0  0  0  0
    8.5802   -1.3517   22.4165 N   0  0  0  0  0  0  0  0  0  0  0  0
    7.6706   -1.5217   21.4040 C   0  0  0  0  0  0  0  0  0  0  0  0
    7.3658   -0.7563   20.2712 C   0  0  0  0  0  0  0  0  0  0  0  0
  1  2  1  0
  2  3  1  0
  3  4  2  0
  4  5  1  0
  5  6  2  0
  6  7  1  0
  7  8  2  0
  8  9  1  0
  9 10  1  0
 10 11  1  0
 11 12  1  0
 11 13  1  0
 13 14  1  1
 13 15  1  0
 15 16  2  0
 15 17  1  0
 17 18  1  0
 18 19  1  0
 19 20  1  0
 20 21  1  0
 21 22  1  0
  8 23  1  0
 23 24  1  0
 24 25  2  0
 25  3  1  0
 24  6  1  0
 22 18  1  0
M  END
