
     RDKit          3D

 25 27  0  0  0  0  0  0  0  0999 V2000
   12.4459    6.4844   23.3163 C   0  0  0  0  0  0  0  0  0  0  0  0
   12.2499    5.0681   23.4696 N   0  0  0  0  0  0  0  0  0  0  0  0
   13.2840    4.2147   23.7927 C   0  0  0  0  0  0  0  0  0  0  0  0
   14.4360    4.6046   23.9620 O   0  0  0  0  0  0  0  0  0  0  0  0
   12.8871    2.8255   23.9020 C   0  0  0  0  0  0  0  0  0  0  0  0
   11.6385    2.2345   23.8858 C   0  0  0  0  0  0  0  0  0  0  0  0
   11.8418    0.8417   24.0312 C   0  0  0  0  0  0  0  0  0  0  0  0
   13.2041    0.6557   24.1407 C   0  0  0  0  0  0  0  0  0  0  0  0
   14.0656   -0.5510   24.3051 C   0  0  0  0  0  0  0  0  0  0  0  0
   13.5085   -1.6356   25.1445 N   0  0  0  0  0  0  0  0  0  0  0  0
   14.5599   -2.3231   25.9001 C   0  0  0  0  0  0  0  0  0  0  0  0
   12.6963   -2.6222   24.3913 C   0  0  0  0  0  0  0  0  0  0  0  0
   11.4818   -3.1927   25.1465 C   0  0  0  0  0  0  0  0  0  0  0  0
   10.2430   -3.2882   24.3169 C   0  0  0  0  0  0  0  0  0  0  0  0
    9.7759   -2.3669   23.4986 N   0  0  0  0  0  0  0  0  0  0  0  0
    8.6177   -2.8893   22.9758 C   0  0  0  0  0  0  0  0  0  0  0  0
    7.7215   -2.3367   22.0529 C   0  0  0  0  0  0  0  0  0  0  0  0
    6.5998   -3.0897   21.6783 C   0  0  0  0  0  0  0  0  0  0  0  0
    6.3662   -4.3662   22.2048 C   0  0  0  0  0  0  0  0  0  0  0  0
    5.2266   -4.9659   21.7344 O   0  0  0  0  0  0  0  0  0  0  0  0
    4.3890   -5.5989   22.6927 C   0  0  0  0  0  0  0  0  0  0  0  0
    7.2559   -4.9295   23.1297 C   0  0  0  0  0  0  0  0  0  0  0  0
    8.3672   -4.1565   23.4876 C   0  0  0  0  0  0  0  0  0  0  0  0
    9.4136   -4.3841   24.3409 N   0  0  0  0  0  0  0  0  0  0  0  0
   13.8466    1.8574   24.0546 O   0  0  0  0  0  0  0  0  0  0  0  0
  1  2  1  0
  2  3  1  0
  3  4  2  0
  3  5  1  0
  5  6  2  0
  6  7  1  0
  7  8  2  0
  8  9  1  0
  9 10  1  0
 10 11  1  0
 10 12  1  0
 12 13  1  0
 13 14  1  0
 14 15  2  0
 15 16  1  0
 16 17  2  0
 17 18  1  0
 18 19  2  0
 19 20  1  0
 20 21  1  0
 19 22  1  0
 22 23  2  0
 23 24  1  0
  8 25  1  0
 25  5  1  0
 24 14  1  0
 23 16  1  0
M  END
