
     RDKit          3D

 24 25  0  0  0  0  0  0  0  0999 V2000
    5.1887    0.4699   18.1280 C   0  0  0  0  0  0  0  0  0  0  0  0
    4.5999   -0.0608   19.3088 O   0  0  0  0  0  0  0  0  0  0  0  0
    5.4527   -0.4179   20.3164 C   0  0  0  0  0  0  0  0  0  0  0  0
    5.8384   -1.7597   20.3069 C   0  0  0  0  0  0  0  0  0  0  0  0
    6.7096   -2.2595   21.2777 C   0  0  0  0  0  0  0  0  0  0  0  0
    7.2143   -1.4175   22.2747 C   0  0  0  0  0  0  0  0  0  0  0  0
    8.1737   -1.9460   23.3129 C   0  0  0  0  0  0  0  0  0  0  0  0
    9.6339   -1.5616   23.0518 C   0  0  0  0  0  0  0  0  0  0  0  0
   10.5783   -2.0220   24.1659 C   0  0  0  0  0  0  0  0  0  0  0  0
   11.2777   -0.8557   24.8484 C   0  0  0  0  0  0  0  0  0  0  0  0
   10.9418   -0.4824   25.9755 O   0  0  0  0  0  0  0  0  0  0  0  0
   12.3329   -0.2641   24.1626 N   0  0  0  0  0  0  0  0  0  0  0  0
   12.7837   -0.6524   22.8174 C   0  0  0  0  0  0  0  0  0  0  0  0
   14.1491   -1.3514   22.8279 C   0  0  0  0  0  0  0  0  0  0  0  0
   14.1200   -2.4977   23.6736 O   0  0  0  0  0  0  0  0  0  0  0  0
   13.0264    0.8579   24.7888 C   0  0  0  0  0  0  0  0  0  0  0  0
   12.8370    2.0705   23.9534 C   0  0  0  0  0  0  0  0  0  0  0  0
   13.8566    2.5956   23.1963 N   0  0  0  0  0  0  0  0  0  0  0  0
   13.3728    3.6955   22.5542 C   0  0  0  0  0  0  0  0  0  0  0  0
   12.1149    3.9164   22.8601 N   0  0  0  0  0  0  0  0  0  0  0  0
   11.7641    2.9130   23.7354 C   0  0  0  0  0  0  0  0  0  0  0  0
   10.3965    2.8476   24.2970 C   0  0  0  0  0  0  0  0  0  0  0  0
    6.8228   -0.0727   22.2836 C   0  0  0  0  0  0  0  0  0  0  0  0
    5.9486    0.4248   21.3104 C   0  0  0  0  0  0  0  0  0  0  0  0
  1  2  1  0
  2  3  1  0
  3  4  2  0
  4  5  1  0
  5  6  2  0
  6  7  1  0
  7  8  1  0
  8  9  1  0
  9 10  1  0
 10 11  2  0
 10 12  1  0
 12 13  1  0
 13 14  1  0
 14 15  1  0
 12 16  1  0
 16 17  1  0
 17 18  1  0
 18 19  1  0
 19 20  2  0
 20 21  1  0
 21 22  1  0
  6 23  1  0
 23 24  2  0
 24  3  1  0
 21 17  2  0
M  END
