
     RDKit          3D

 23 25  0  0  0  0  0  0  0  0999 V2000
   11.9977    0.0483   26.1780 O   0  0  0  0  0  0  0  0  0  0  0  0
   12.5387   -0.8885   25.6106 C   0  0  0  0  0  0  0  0  0  0  0  0
   13.3706   -1.6848   26.3145 O   0  0  0  0  0  0  0  0  0  0  0  0
   12.4417   -1.2459   24.1299 C   0  0  1  0  0  0  0  0  0  0  0  0
   11.8271   -2.6685   24.0095 C   0  0  0  0  0  0  0  0  0  0  0  0
   10.7786   -3.0440   25.0346 C   0  0  0  0  0  0  0  0  0  0  0  0
   11.0023   -4.0879   25.9420 C   0  0  0  0  0  0  0  0  0  0  0  0
   10.0281   -4.4326   26.8805 C   0  0  0  0  0  0  0  0  0  0  0  0
    8.8235   -3.7342   26.9263 C   0  0  0  0  0  0  0  0  0  0  0  0
    8.5929   -2.6878   26.0360 C   0  0  0  0  0  0  0  0  0  0  0  0
    9.5658   -2.3432   25.0966 C   0  0  0  0  0  0  0  0  0  0  0  0
   11.5002   -0.2481   23.3882 C   0  0  0  0  0  0  0  0  0  0  0  0
   12.2190    0.9734   22.8006 C   0  0  0  0  0  0  0  0  0  0  0  0
   13.3596    1.3486   23.6312 N   0  0  0  0  0  0  0  0  0  0  0  0
   13.8748    2.6762   23.2602 C   0  0  0  0  0  0  0  0  0  0  0  0
   12.8208    3.7395   23.2941 C   0  0  0  0  0  0  0  0  0  0  0  0
   11.6237    3.7568   23.9839 C   0  0  0  0  0  0  0  0  0  0  0  0
   10.8507    4.8902   23.8257 N   0  0  0  0  0  0  0  0  0  0  0  0
   11.4677    5.7200   23.0137 C   0  0  0  0  0  0  0  0  0  0  0  0
   12.9931    5.2096   22.4208 S   0  0  0  0  0  0  0  0  0  0  0  0
   14.4090    0.3079   23.5738 C   0  0  0  0  0  0  0  0  0  0  0  0
   13.8542   -1.1434   23.5147 C   0  0  2  0  0  0  0  0  0  0  0  0
   13.8039   -1.5719   22.1404 O   0  0  0  0  0  0  0  0  0  0  0  0
  1  2  2  0
  2  3  1  0
  2  4  1  0
  4  5  1  1
  5  6  1  0
  6  7  2  0
  7  8  1  0
  8  9  2  0
  9 10  1  0
 10 11  2  0
  4 12  1  0
 12 13  1  0
 13 14  1  0
 14 15  1  0
 15 16  1  0
 16 17  2  0
 17 18  1  0
 18 19  2  0
 19 20  1  0
 14 21  1  0
 21 22  1  0
 22 23  1  6
 22  4  1  0
 11  6  1  0
 20 16  1  0
M  END
