
     RDKit          3D

 24 25  0  0  0  0  0  0  0  0999 V2000
   13.2787    3.3377   23.0204 C   0  0  0  0  0  0  0  0  0  0  0  0
   12.5148    2.1211   23.5274 C   0  0  0  0  0  0  0  0  0  0  0  0
   13.4460    0.9141   23.6889 C   0  0  0  0  0  0  0  0  0  0  0  0
   12.7574   -0.4287   24.0607 C   0  0  2  0  0  0  0  0  0  0  0  0
   12.6694   -1.2921   22.8043 C   0  0  0  0  0  0  0  0  0  0  0  0
   11.6483   -1.6244   22.2214 O   0  0  0  0  0  0  0  0  0  0  0  0
   13.8675   -1.6579   22.3087 O   0  0  0  0  0  0  0  0  0  0  0  0
   11.3195   -0.1015   24.5372 C   0  0  0  0  0  0  0  0  0  0  0  0
   10.5611   -1.3045   25.1003 C   0  0  0  0  0  0  0  0  0  0  0  0
   11.3343   -2.5470   25.1070 N   0  0  0  0  0  0  0  0  0  0  0  0
   10.7290   -3.8075   25.1838 C   0  0  0  0  0  0  0  0  0  0  0  0
   11.3626   -4.8631   25.1733 O   0  0  0  0  0  0  0  0  0  0  0  0
    9.2555   -3.9044   25.2615 C   0  0  0  0  0  0  0  0  0  0  0  0
    8.5263   -4.4864   24.2234 C   0  0  0  0  0  0  0  0  0  0  0  0
    7.1427   -4.5990   24.3401 C   0  0  0  0  0  0  0  0  0  0  0  0
    6.4871   -4.1537   25.4998 C   0  0  0  0  0  0  0  0  0  0  0  0
    4.9939   -4.3046   25.6146 C   0  0  0  0  0  0  0  0  0  0  0  0
    7.2341   -3.5964   26.5571 C   0  0  0  0  0  0  0  0  0  0  0  0
    6.5119   -3.1927   27.6486 O   0  0  0  0  0  0  0  0  0  0  0  0
    7.1886   -3.1742   28.8978 C   0  0  0  0  0  0  0  0  0  0  0  0
    8.6205   -3.4745   26.4315 C   0  0  0  0  0  0  0  0  0  0  0  0
   12.7098   -2.4767   25.5961 C   0  0  0  0  0  0  0  0  0  0  0  0
   13.4611   -1.1880   25.2049 C   0  0  2  0  0  0  0  0  0  0  0  0
   13.5477   -0.3289   26.3569 O   0  0  0  0  0  0  0  0  0  0  0  0
  1  2  1  0
  2  3  1  0
  4  3  1  6
  4  5  1  0
  5  6  2  0
  5  7  1  0
  4  8  1  0
  8  9  1  0
  9 10  1  0
 10 11  1  0
 11 12  2  0
 11 13  1  0
 13 14  2  0
 14 15  1  0
 15 16  2  0
 16 17  1  0
 16 18  1  0
 18 19  1  0
 19 20  1  0
 18 21  2  0
 10 22  1  0
 22 23  1  0
 23 24  1  1
 23  4  1  0
 21 13  1  0
M  END
