
     RDKit          3D

 25 27  0  0  0  0  0  0  0  0999 V2000
    6.0780    0.4672   17.7347 C   0  0  0  0  0  0  0  0  0  0  0  0
    5.5454    0.7328   19.0482 N   0  0  0  0  0  0  0  0  0  0  0  0
    4.6086    1.6842   19.3363 C   0  0  0  0  0  0  0  0  0  0  0  0
    4.3334    1.7189   20.6202 N   0  0  0  0  0  0  0  0  0  0  0  0
    5.1323    0.7607   21.1832 C   0  0  0  0  0  0  0  0  0  0  0  0
    5.8758    0.1028   20.2247 C   0  0  0  0  0  0  0  0  0  0  0  0
    6.8530   -1.0089   20.3632 C   0  0  0  0  0  0  0  0  0  0  0  0
    7.4718   -0.9924   21.6903 N   0  0  0  0  0  0  0  0  0  0  0  0
    7.0377   -2.0044   22.6681 C   0  0  0  0  0  0  0  0  0  0  0  0
    7.0978   -3.4440   22.1412 C   0  0  0  0  0  0  0  0  0  0  0  0
    5.8340   -3.8870   21.6548 O   0  0  0  0  0  0  0  0  0  0  0  0
    8.4184    0.0036   21.9436 C   0  0  0  0  0  0  0  0  0  0  0  0
    8.7699    0.8130   21.0868 O   0  0  0  0  0  0  0  0  0  0  0  0
    9.0974    0.0735   23.3052 C   0  0  2  0  0  0  0  0  0  0  0  0
   10.4916   -0.5781   23.3398 C   0  0  0  0  0  0  0  0  0  0  0  0
   11.6528    0.0811   22.8937 C   0  0  0  0  0  0  0  0  0  0  0  0
   12.9070   -0.5333   22.9504 C   0  0  0  0  0  0  0  0  0  0  0  0
   13.0176   -1.8207   23.4561 C   0  0  0  0  0  0  0  0  0  0  0  0
   14.2190   -2.4083   23.5106 F   0  0  0  0  0  0  0  0  0  0  0  0
   11.8986   -2.5051   23.9053 C   0  0  0  0  0  0  0  0  0  0  0  0
   10.6487   -1.8849   23.8475 C   0  0  0  0  0  0  0  0  0  0  0  0
    8.2405    0.1391   24.5702 C   0  0  0  0  0  0  0  0  0  0  0  0
    8.9239    1.3973   24.1248 C   0  0  0  0  0  0  0  0  0  0  0  0
    8.0547    2.5073   23.5760 C   0  0  0  0  0  0  0  0  0  0  0  0
   10.0519    1.9150   24.9879 C   0  0  0  0  0  0  0  0  0  0  0  0
  1  2  1  0
  2  3  1  0
  3  4  2  0
  4  5  1  0
  5  6  2  0
  6  7  1  0
  7  8  1  0
  8  9  1  0
  9 10  1  0
 10 11  1  0
  8 12  1  0
 12 13  2  0
 14 12  1  6
 14 15  1  0
 15 16  2  0
 16 17  1  0
 17 18  2  0
 18 19  1  0
 18 20  1  0
 20 21  2  0
 14 22  1  0
 22 23  1  0
 23 24  1  0
 23 25  1  0
  6  2  1  0
 23 14  1  0
 21 15  1  0
M  END
