
     RDKit          3D

 24 26  0  0  0  0  0  0  0  0999 V2000
   12.9637    0.0360   25.7719 C   0  0  0  0  0  0  0  0  0  0  0  0
   13.0124   -0.8952   24.5570 C   0  0  0  0  0  0  0  0  0  0  0  0
   11.6136   -1.3744   24.1534 C   0  0  0  0  0  0  0  0  0  0  0  0
   11.0545   -2.4411   25.0999 C   0  0  0  0  0  0  0  0  0  0  0  0
   11.9747   -3.5845   25.2183 N   0  0  0  0  0  0  0  0  0  0  0  0
   11.4232   -4.6272   26.1036 C   0  0  0  0  0  0  0  0  0  0  0  0
    9.9474   -4.7870   25.9531 C   0  0  0  0  0  0  0  0  0  0  0  0
    8.8970   -4.7592   26.8462 C   0  0  0  0  0  0  0  0  0  0  0  0
    7.7216   -4.9757   26.0878 C   0  0  0  0  0  0  0  0  0  0  0  0
    8.1175   -5.1351   24.7737 C   0  0  0  0  0  0  0  0  0  0  0  0
    7.3529   -5.3935   23.5727 C   0  0  0  0  0  0  0  0  0  0  0  0
    7.5992   -6.3087   22.7905 O   0  0  0  0  0  0  0  0  0  0  0  0
    6.3020   -4.5231   23.3814 N   0  0  0  0  0  0  0  0  0  0  0  0
    5.4105   -4.6024   22.2456 C   0  0  0  0  0  0  0  0  0  0  0  0
    6.0734   -4.1615   20.9381 C   0  0  0  0  0  0  0  0  0  0  0  0
    5.8421   -2.7166   20.5650 C   0  0  0  0  0  0  0  0  0  0  0  0
    5.7467   -1.7571   21.5712 C   0  0  0  0  0  0  0  0  0  0  0  0
    5.5372   -0.4423   21.3230 N   0  0  0  0  0  0  0  0  0  0  0  0
    5.4307   -0.1130   20.0183 C   0  0  0  0  0  0  0  0  0  0  0  0
    5.5234   -1.0541   19.0093 C   0  0  0  0  0  0  0  0  0  0  0  0
    5.7282   -2.3688   19.2575 N   0  0  0  0  0  0  0  0  0  0  0  0
    9.4813   -5.0103   24.6897 O   0  0  0  0  0  0  0  0  0  0  0  0
   13.2864   -3.1483   25.7216 C   0  0  0  0  0  0  0  0  0  0  0  0
   13.9223   -2.1047   24.8001 C   0  0  0  0  0  0  0  0  0  0  0  0
  1  2  1  0
  2  3  1  0
  3  4  1  0
  4  5  1  0
  5  6  1  0
  6  7  1  0
  7  8  2  0
  8  9  1  0
  9 10  2  0
 10 11  1  0
 11 12  2  0
 11 13  1  0
 13 14  1  0
 14 15  1  0
 15 16  1  0
 16 17  2  0
 17 18  1  0
 18 19  2  0
 19 20  1  0
 20 21  2  0
 10 22  1  0
  5 23  1  0
 23 24  1  0
 24  2  1  0
 22  7  1  0
 21 16  1  0
M  END
