
     RDKit          3D

 21 22  0  0  0  0  0  0  0  0999 V2000
    4.5801    1.1535   18.8014 C   0  0  0  0  0  0  0  0  0  0  0  0
    5.0616    0.1969   19.7388 O   0  0  0  0  0  0  0  0  0  0  0  0
    5.9268   -0.7757   19.1411 C   0  0  0  0  0  0  0  0  0  0  0  0
    6.3777   -1.7512   20.1767 C   0  0  0  0  0  0  0  0  0  0  0  0
    5.7450   -2.8663   20.4855 N   0  0  0  0  0  0  0  0  0  0  0  0
    6.3962   -3.5680   21.4802 N   0  0  0  0  0  0  0  0  0  0  0  0
    7.4893   -2.9585   21.8848 C   0  0  0  0  0  0  0  0  0  0  0  0
    8.2906   -3.4692   22.8668 N   0  0  0  0  0  0  0  0  0  0  0  0
    8.0954   -4.6061   23.6166 C   0  0  0  0  0  0  0  0  0  0  0  0
    7.1791   -5.4152   23.5180 O   0  0  0  0  0  0  0  0  0  0  0  0
    9.2393   -4.8253   24.6186 C   0  0  0  0  0  0  0  0  0  0  0  0
    9.8796   -3.5301   24.9847 N   0  0  0  0  0  0  0  0  0  0  0  0
    9.1668   -2.9282   26.1219 C   0  0  0  0  0  0  0  0  0  0  0  0
   11.2948   -3.7397   25.3575 C   0  0  0  0  0  0  0  0  0  0  0  0
   12.2054   -2.7354   24.6940 C   0  0  0  0  0  0  0  0  0  0  0  0
   11.6255   -1.8390   23.3490 S   0  0  0  0  0  0  0  0  0  0  0  0
   13.0998   -1.0000   23.1860 C   0  0  0  0  0  0  0  0  0  0  0  0
   14.0255   -1.4014   24.1204 C   0  0  0  0  0  0  0  0  0  0  0  0
   13.5244   -2.4193   24.9974 C   0  0  0  0  0  0  0  0  0  0  0  0
   14.3331   -3.0348   26.0930 C   0  0  0  0  0  0  0  0  0  0  0  0
    7.8056   -1.4844   21.0942 S   0  0  0  0  0  0  0  0  0  0  0  0
  1  2  1  0
  2  3  1  0
  3  4  1  0
  4  5  2  0
  5  6  1  0
  6  7  2  0
  7  8  1  0
  8  9  1  0
  9 10  2  0
  9 11  1  0
 11 12  1  0
 12 13  1  0
 12 14  1  0
 14 15  1  0
 15 16  1  0
 16 17  1  0
 17 18  2  0
 18 19  1  0
 19 20  1  0
  7 21  1  0
 21  4  1  0
 19 15  2  0
M  END
