
     RDKit          3D

 24 26  0  0  0  0  0  0  0  0999 V2000
   14.3244   -2.4459   25.5625 C   0  0  0  0  0  0  0  0  0  0  0  0
   13.3988   -1.6708   24.6196 C   0  0  2  0  0  0  0  0  0  0  0  0
   13.5744   -2.2072   23.3065 O   0  0  0  0  0  0  0  0  0  0  0  0
   13.7848   -0.1922   24.5972 C   0  0  0  0  0  0  0  0  0  0  0  0
   12.7887    0.6191   23.7863 C   0  0  0  0  0  0  0  0  0  0  0  0
   11.4551    0.4415   24.2596 O   0  0  0  0  0  0  0  0  0  0  0  0
   10.9591   -0.9111   24.2595 C   0  0  0  0  0  0  0  0  0  0  0  0
   10.7344   -1.4317   22.8163 C   0  0  0  0  0  0  0  0  0  0  0  0
    9.3302   -1.1256   22.3019 C   0  0  0  0  0  0  0  0  0  0  0  0
    8.3121   -1.7610   23.1397 N   0  0  0  0  0  0  0  0  0  0  0  0
    7.0842   -2.2320   22.6825 C   0  0  0  0  0  0  0  0  0  0  0  0
    6.2837   -2.7802   23.4430 O   0  0  0  0  0  0  0  0  0  0  0  0
    6.7919   -2.0665   21.1944 C   0  0  0  0  0  0  0  0  0  0  0  0
    6.2783   -0.6950   20.8316 C   0  0  0  0  0  0  0  0  0  0  0  0
    6.2326    0.3387   21.7797 C   0  0  0  0  0  0  0  0  0  0  0  0
    5.7767    1.6115   21.4200 C   0  0  0  0  0  0  0  0  0  0  0  0
    5.3679    1.8645   20.1104 C   0  0  0  0  0  0  0  0  0  0  0  0
    5.4214    0.8444   19.1669 C   0  0  0  0  0  0  0  0  0  0  0  0
    5.0259    1.0919   17.9103 F   0  0  0  0  0  0  0  0  0  0  0  0
    5.8750   -0.4219   19.5208 C   0  0  0  0  0  0  0  0  0  0  0  0
    5.9146   -1.3946   18.5977 F   0  0  0  0  0  0  0  0  0  0  0  0
    8.6221   -1.8998   24.5601 C   0  0  0  0  0  0  0  0  0  0  0  0
    9.6066   -0.8330   25.0161 C   0  0  0  0  0  0  0  0  0  0  0  0
   11.9342   -1.8177   25.0529 C   0  0  0  0  0  0  0  0  0  0  0  0
  2  1  1  1
  2  3  1  0
  2  4  1  0
  4  5  1  0
  5  6  1  0
  6  7  1  0
  7  8  1  0
  8  9  1  0
  9 10  1  0
 10 11  1  0
 11 12  2  0
 11 13  1  0
 13 14  1  0
 14 15  2  0
 15 16  1  0
 16 17  2  0
 17 18  1  0
 18 19  1  0
 18 20  2  0
 20 21  1  0
 10 22  1  0
 22 23  1  0
  7 24  1  0
 24  2  1  0
 23  7  1  0
 20 14  1  0
M  END
