
     RDKit          3D

 25 26  0  0  0  0  0  0  0  0999 V2000
   14.2166   -2.3339   24.7079 C   0  0  0  0  0  0  0  0  0  0  0  0
   14.4391   -1.0021   24.2660 O   0  0  0  0  0  0  0  0  0  0  0  0
   13.8862   -0.7859   22.9634 C   0  0  0  0  0  0  0  0  0  0  0  0
   12.4436   -0.3297   23.0269 C   0  0  0  0  0  0  0  0  0  0  0  0
   11.3856   -1.1980   22.7032 C   0  0  0  0  0  0  0  0  0  0  0  0
   10.0508   -0.7741   22.7617 C   0  0  0  0  0  0  0  0  0  0  0  0
    8.9212   -1.7231   22.4143 C   0  0  0  0  0  0  0  0  0  0  0  0
    8.2019   -2.2202   23.6116 N   0  0  0  0  0  0  0  0  0  0  0  0
    8.5745   -3.6312   23.8826 C   0  0  0  0  0  0  0  0  0  0  0  0
    9.7117   -3.7507   24.9291 C   0  0  0  0  0  0  0  0  0  0  0  0
    9.9998   -5.1411   25.3424 N   0  0  0  0  0  0  0  0  0  0  0  0
    8.8861   -5.6625   26.1406 C   0  0  0  0  0  0  0  0  0  0  0  0
   11.2421   -5.2361   26.1137 C   0  0  0  0  0  0  0  0  0  0  0  0
    6.7469   -2.1143   23.3849 C   0  0  0  0  0  0  0  0  0  0  0  0
    6.3479   -2.8543   22.1576 C   0  0  0  0  0  0  0  0  0  0  0  0
    6.2074   -4.2199   22.1350 N   0  0  0  0  0  0  0  0  0  0  0  0
    5.8441   -4.5817   20.8730 C   0  0  0  0  0  0  0  0  0  0  0  0
    5.7535   -3.5376   20.0824 N   0  0  0  0  0  0  0  0  0  0  0  0
    6.0645   -2.4500   20.8668 C   0  0  0  0  0  0  0  0  0  0  0  0
    6.0623   -1.0847   20.2959 C   0  0  0  0  0  0  0  0  0  0  0  0
    9.7806    0.5446   23.1405 C   0  0  0  0  0  0  0  0  0  0  0  0
   10.8204    1.4228   23.4574 C   0  0  0  0  0  0  0  0  0  0  0  0
   12.1507    0.9961   23.4018 C   0  0  0  0  0  0  0  0  0  0  0  0
   13.2359    1.7848   23.6908 O   0  0  0  0  0  0  0  0  0  0  0  0
   13.3266    3.0389   23.0264 C   0  0  0  0  0  0  0  0  0  0  0  0
  1  2  1  0
  2  3  1  0
  3  4  1  0
  4  5  2  0
  5  6  1  0
  6  7  1  0
  7  8  1  0
  8  9  1  0
  9 10  1  0
 10 11  1  0
 11 12  1  0
 11 13  1  0
  8 14  1  0
 14 15  1  0
 15 16  1  0
 16 17  1  0
 17 18  2  0
 18 19  1  0
 19 20  1  0
  6 21  2  0
 21 22  1  0
 22 23  2  0
 23 24  1  0
 24 25  1  0
 23  4  1  0
 19 15  2  0
M  END
