
     RDKit          3D

 25 27  0  0  0  0  0  0  0  0999 V2000
    6.3492   -1.5999   26.0884 C   0  0  0  0  0  0  0  0  0  0  0  0
    7.4411   -2.3197   25.5110 O   0  0  0  0  0  0  0  0  0  0  0  0
    7.0245   -3.0429   24.4211 C   0  0  0  0  0  0  0  0  0  0  0  0
    6.5879   -4.3616   24.6353 C   0  0  0  0  0  0  0  0  0  0  0  0
    6.5529   -4.9499   26.0174 C   0  0  0  0  0  0  0  0  0  0  0  0
    6.1528   -5.1208   23.5383 C   0  0  0  0  0  0  0  0  0  0  0  0
    6.1706   -4.5870   22.2483 C   0  0  0  0  0  0  0  0  0  0  0  0
    6.6386   -3.2916   22.0365 C   0  0  0  0  0  0  0  0  0  0  0  0
    7.0915   -2.5266   23.1181 C   0  0  0  0  0  0  0  0  0  0  0  0
    7.5880   -1.1652   22.8243 C   0  0  0  0  0  0  0  0  0  0  0  0
    6.7801   -0.2422   22.9173 O   0  0  0  0  0  0  0  0  0  0  0  0
    8.9198   -0.9854   22.4474 N   0  0  0  0  0  0  0  0  0  0  0  0
    9.5025    0.3159   22.1377 C   0  0  0  0  0  0  0  0  0  0  0  0
   10.2283    0.8548   23.3742 C   0  0  0  0  0  0  0  0  0  0  0  0
   11.2873   -0.1420   23.9126 C   0  0  1  0  0  0  0  0  0  0  0  0
   12.4313   -0.1667   22.8903 C   0  0  0  0  0  0  0  0  0  0  0  0
   12.7474   -1.0715   22.1364 O   0  0  0  0  0  0  0  0  0  0  0  0
   13.0777    1.0148   22.7820 O   0  0  0  0  0  0  0  0  0  0  0  0
   11.8086    0.3493   25.2856 C   0  0  0  0  0  0  0  0  0  0  0  0
   12.7618   -0.6651   25.9146 C   0  0  0  0  0  0  0  0  0  0  0  0
   12.1391   -2.0585   25.9824 C   0  0  0  0  0  0  0  0  0  0  0  0
   11.6603   -2.5094   24.6641 N   0  0  0  0  0  0  0  0  0  0  0  0
   11.1429   -3.8757   24.7757 C   0  0  0  0  0  0  0  0  0  0  0  0
   10.6536   -1.5590   24.1200 C   0  0  2  0  0  0  0  0  0  0  0  0
    9.8937   -2.0067   22.8404 C   0  0  0  0  0  0  0  0  0  0  0  0
  1  2  1  0
  2  3  1  0
  3  4  2  0
  4  5  1  0
  4  6  1  0
  6  7  2  0
  7  8  1  0
  8  9  2  0
  9 10  1  0
 10 11  2  0
 10 12  1  0
 12 13  1  0
 13 14  1  0
 14 15  1  0
 15 16  1  6
 16 17  2  0
 16 18  1  0
 15 19  1  0
 19 20  1  0
 20 21  1  0
 21 22  1  0
 22 23  1  0
 22 24  1  0
 24 25  1  6
  9  3  1  0
 25 12  1  0
 24 15  1  0
M  END
