
     RDKit          3D

 24 25  0  0  0  0  0  0  0  0999 V2000
   14.0282    0.1803   23.1740 C   0  0  0  0  0  0  0  0  0  0  0  0
   13.1163   -0.0719   24.3126 C   0  0  0  0  0  0  0  0  0  0  0  0
   13.2172    0.6743   25.4632 N   0  0  0  0  0  0  0  0  0  0  0  0
   12.2869    0.2135   26.2662 C   0  0  0  0  0  0  0  0  0  0  0  0
   11.5886   -0.8025   25.6872 N   0  0  0  0  0  0  0  0  0  0  0  0
   12.0946   -0.9978   24.4259 C   0  0  0  0  0  0  0  0  0  0  0  0
   11.5768   -2.0324   23.5003 C   0  0  0  0  0  0  0  0  0  0  0  0
   10.1638   -2.3131   23.7501 N   0  0  0  0  0  0  0  0  0  0  0  0
    9.8311   -3.4359   24.6376 C   0  0  0  0  0  0  0  0  0  0  0  0
   11.0584   -4.1969   25.1923 C   0  0  0  0  0  0  0  0  0  0  0  0
   10.7514   -5.3644   26.0594 N   0  0  0  0  0  0  0  0  0  0  0  0
    9.9847   -4.9032   27.2278 C   0  0  0  0  0  0  0  0  0  0  0  0
    9.9612   -6.3694   25.3357 C   0  0  0  0  0  0  0  0  0  0  0  0
    9.1012   -1.6585   23.1190 C   0  0  0  0  0  0  0  0  0  0  0  0
    7.9344   -1.9454   23.4002 O   0  0  0  0  0  0  0  0  0  0  0  0
    9.4419   -0.5740   22.0970 C   0  0  0  0  0  0  0  0  0  0  0  0
    8.2386    0.0499   21.4242 C   0  0  0  0  0  0  0  0  0  0  0  0
    7.7064    1.2538   21.8955 C   0  0  0  0  0  0  0  0  0  0  0  0
    6.5928    1.8239   21.2768 C   0  0  0  0  0  0  0  0  0  0  0  0
    5.9869    1.2053   20.1734 C   0  0  0  0  0  0  0  0  0  0  0  0
    4.7911    1.8524   19.5310 C   0  0  0  0  0  0  0  0  0  0  0  0
    6.5162   -0.0066   19.6884 C   0  0  0  0  0  0  0  0  0  0  0  0
    5.9117   -0.7072   18.5025 C   0  0  0  0  0  0  0  0  0  0  0  0
    7.6395   -0.5687   20.3183 C   0  0  0  0  0  0  0  0  0  0  0  0
  1  2  1  0
  2  3  1  0
  3  4  2  0
  4  5  1  0
  5  6  1  0
  6  7  1  0
  7  8  1  0
  8  9  1  0
  9 10  1  0
 10 11  1  0
 11 12  1  0
 11 13  1  0
  8 14  1  0
 14 15  2  0
 14 16  1  0
 16 17  1  0
 17 18  2  0
 18 19  1  0
 19 20  2  0
 20 21  1  0
 20 22  1  0
 22 23  1  0
 22 24  2  0
  6  2  2  0
 24 17  1  0
M  END
