
     RDKit          3D

 24 27  0  0  0  0  0  0  0  0999 V2000
   11.1562    4.0111   23.2521 C   0  0  0  0  0  0  0  0  0  0  0  0
   12.3203    3.0753   22.9436 C   0  0  0  0  0  0  0  0  0  0  0  0
   12.3742    1.8970   23.8273 N   0  0  0  0  0  0  0  0  0  0  0  0
   13.6872    1.2478   23.7048 C   0  0  0  0  0  0  0  0  0  0  0  0
   13.8005    0.0389   24.6326 C   0  0  0  0  0  0  0  0  0  0  0  0
   12.6947   -1.0113   24.3748 C   0  0  1  0  0  0  0  0  0  0  0  0
   12.8801   -1.6479   22.9667 C   0  0  0  0  0  0  0  0  0  0  0  0
   14.2444   -1.6346   22.5545 O   0  0  0  0  0  0  0  0  0  0  0  0
   12.7887   -2.0945   25.4771 C   0  0  0  0  0  0  0  0  0  0  0  0
   11.6089   -3.0576   25.4219 C   0  0  0  0  0  0  0  0  0  0  0  0
   10.2744   -2.3123   25.3854 C   0  0  0  0  0  0  0  0  0  0  0  0
   10.2162   -1.3101   24.2892 N   0  0  0  0  0  0  0  0  0  0  0  0
    8.8708   -0.6857   24.2750 C   0  0  0  0  0  0  0  0  0  0  0  0
    8.1679   -0.8535   22.9611 C   0  0  0  0  0  0  0  0  0  0  0  0
    8.1892   -0.0311   21.9309 N   0  0  0  0  0  0  0  0  0  0  0  0
    7.4001   -0.6219   20.9732 C   0  0  0  0  0  0  0  0  0  0  0  0
    7.0725   -0.1801   19.6834 C   0  0  0  0  0  0  0  0  0  0  0  0
    6.2327   -0.9759   18.8935 C   0  0  0  0  0  0  0  0  0  0  0  0
    5.7294   -2.1859   19.3784 C   0  0  0  0  0  0  0  0  0  0  0  0
    6.0454   -2.6435   20.6632 C   0  0  0  0  0  0  0  0  0  0  0  0
    6.8857   -1.8313   21.4272 C   0  0  0  0  0  0  0  0  0  0  0  0
    7.3922   -1.9560   22.6933 N   0  0  0  0  0  0  0  0  0  0  0  0
   11.3059   -0.3042   24.4954 C   0  0  2  0  0  0  0  0  0  0  0  0
   11.2668    0.9558   23.5712 C   0  0  0  0  0  0  0  0  0  0  0  0
  1  2  1  0
  2  3  1  0
  3  4  1  0
  4  5  1  0
  5  6  1  0
  6  7  1  6
  7  8  1  0
  6  9  1  0
  9 10  1  0
 10 11  1  0
 11 12  1  0
 12 13  1  0
 13 14  1  0
 14 15  2  0
 15 16  1  0
 16 17  2  0
 17 18  1  0
 18 19  2  0
 19 20  1  0
 20 21  2  0
 21 22  1  0
 12 23  1  0
 23 24  1  6
 24  3  1  0
 23  6  1  0
 22 14  1  0
 21 16  1  0
M  END
