
     RDKit          3D

 25 28  0  0  0  0  0  0  0  0999 V2000
    5.8024   -5.9233   21.0680 O   0  0  0  0  0  0  0  0  0  0  0  0
    5.8706   -5.1556   22.2688 C   0  0  1  0  0  0  0  0  0  0  0  0
    4.8104   -5.6771   23.2376 C   0  0  0  0  0  0  0  0  0  0  0  0
    4.9137   -4.9707   24.5856 C   0  0  0  0  0  0  0  0  0  0  0  0
    6.3260   -5.0840   25.1622 C   0  0  0  0  0  0  0  0  0  0  0  0
    7.2995   -4.5448   24.1942 N   0  0  0  0  0  0  0  0  0  0  0  0
    8.6092   -4.4838   24.7300 C   0  0  0  0  0  0  0  0  0  0  0  0
    9.0815   -5.5505   25.4698 C   0  0  0  0  0  0  0  0  0  0  0  0
   10.3598   -5.4440   25.9579 C   0  0  0  0  0  0  0  0  0  0  0  0
   11.1433   -4.3752   25.7502 N   0  0  0  0  0  0  0  0  0  0  0  0
   10.6262   -3.3944   25.0044 C   0  0  0  0  0  0  0  0  0  0  0  0
   11.4602   -2.3091   24.7826 N   0  0  0  0  0  0  0  0  0  0  0  0
   11.7058   -2.0339   23.3840 C   0  0  0  0  0  0  0  0  0  0  0  0
   12.2496   -0.6296   23.2432 C   0  0  0  0  0  0  0  0  0  0  0  0
   13.6334   -0.4055   23.2398 C   0  0  0  0  0  0  0  0  0  0  0  0
   14.1401    0.8883   23.1137 C   0  0  0  0  0  0  0  0  0  0  0  0
   13.2720    1.9714   22.9898 C   0  0  0  0  0  0  0  0  0  0  0  0
   11.8875    1.7742   23.0242 C   0  0  0  0  0  0  0  0  0  0  0  0
   11.3834    0.4697   23.1401 C   0  0  0  0  0  0  0  0  0  0  0  0
   10.9430    2.9366   22.9130 C   0  0  0  0  0  0  0  0  0  0  0  0
   11.6697    4.2445   23.1871 C   0  0  0  0  0  0  0  0  0  0  0  0
   12.9860    4.2431   22.4290 C   0  0  0  0  0  0  0  0  0  0  0  0
   13.8604    3.2031   22.8753 O   0  0  0  0  0  0  0  0  0  0  0  0
    9.3867   -3.4118   24.4939 N   0  0  0  0  0  0  0  0  0  0  0  0
    7.2743   -5.2443   22.8965 C   0  0  0  0  0  0  0  0  0  0  0  0
  2  1  1  6
  2  3  1  0
  3  4  1  0
  4  5  1  0
  5  6  1  0
  6  7  1  0
  7  8  2  0
  8  9  1  0
  9 10  2  0
 10 11  1  0
 11 12  1  0
 12 13  1  0
 13 14  1  0
 14 15  2  0
 15 16  1  0
 16 17  2  0
 17 18  1  0
 18 19  2  0
 18 20  1  0
 20 21  1  0
 21 22  1  0
 22 23  1  0
 11 24  2  0
  6 25  1  0
 25  2  1  0
 24  7  1  0
 19 14  1  0
 23 17  1  0
M  END
