
     RDKit          3D

 25 28  0  0  0  0  0  0  0  0999 V2000
   13.2403    2.3656   23.1474 C   0  0  0  0  0  0  0  0  0  0  0  0
   11.9095    1.6861   23.2481 C   0  0  0  0  0  0  0  0  0  0  0  0
   11.7710    0.3540   23.3695 C   0  0  0  0  0  0  0  0  0  0  0  0
   10.4307   -0.3609   23.4196 C   0  0  0  0  0  0  0  0  0  0  0  0
   10.3958   -1.4456   22.3276 C   0  0  0  0  0  0  0  0  0  0  0  0
    9.1278   -2.2919   22.4100 C   0  0  0  0  0  0  0  0  0  0  0  0
    8.9433   -2.8463   23.7489 N   0  0  0  0  0  0  0  0  0  0  0  0
    8.4158   -4.1260   23.8602 C   0  0  0  0  0  0  0  0  0  0  0  0
    8.0845   -4.8026   22.8858 O   0  0  0  0  0  0  0  0  0  0  0  0
    8.2272   -4.6914   25.2129 C   0  0  0  0  0  0  0  0  0  0  0  0
    9.3090   -4.8459   25.9840 C   0  0  0  0  0  0  0  0  0  0  0  0
    9.3043   -5.3399   27.2598 N   0  0  0  0  0  0  0  0  0  0  0  0
    8.1495   -5.6430   27.7696 C   0  0  0  0  0  0  0  0  0  0  0  0
    8.0977   -6.1727   29.1611 C   0  0  0  0  0  0  0  0  0  0  0  0
    6.9206   -6.4912   29.7118 C   0  0  0  0  0  0  0  0  0  0  0  0
    5.7004   -6.3259   28.9688 C   0  0  0  0  0  0  0  0  0  0  0  0
    5.7390   -5.8530   27.7171 C   0  0  0  0  0  0  0  0  0  0  0  0
    6.9371   -5.5090   27.0977 N   0  0  0  0  0  0  0  0  0  0  0  0
    6.9101   -5.0289   25.7886 C   0  0  0  0  0  0  0  0  0  0  0  0
    5.8824   -4.8952   25.1228 O   0  0  0  0  0  0  0  0  0  0  0  0
    8.9542   -1.8565   24.8274 C   0  0  0  0  0  0  0  0  0  0  0  0
   10.2294   -1.0205   24.7961 C   0  0  0  0  0  0  0  0  0  0  0  0
    9.3409    0.5404   23.1317 O   0  0  0  0  0  0  0  0  0  0  0  0
    9.4649    1.8264   23.7372 C   0  0  0  0  0  0  0  0  0  0  0  0
   10.6878    2.5616   23.1960 C   0  0  0  0  0  0  0  0  0  0  0  0
  1  2  1  0
  2  3  2  0
  3  4  1  0
  4  5  1  0
  5  6  1  0
  6  7  1  0
  7  8  1  0
  8  9  2  0
  8 10  1  0
 10 11  2  0
 11 12  1  0
 12 13  2  0
 13 14  1  0
 14 15  2  0
 15 16  1  0
 16 17  2  0
 17 18  1  0
 18 19  1  0
 19 20  2  0
  7 21  1  0
 21 22  1  0
  4 23  1  0
 23 24  1  0
 24 25  1  0
 25  2  1  0
 22  4  1  0
 19 10  1  0
 18 13  1  0
M  END
