
     RDKit          3D

 24 26  0  0  0  0  0  0  0  0999 V2000
    9.9863   -5.8536   26.0642 C   0  0  0  0  0  0  0  0  0  0  0  0
    9.4727   -4.4637   25.9787 C   0  0  0  0  0  0  0  0  0  0  0  0
    8.2668   -4.0723   26.3428 N   0  0  0  0  0  0  0  0  0  0  0  0
    8.2183   -2.7264   26.0956 C   0  0  0  0  0  0  0  0  0  0  0  0
    9.4051   -2.2873   25.5644 C   0  0  0  0  0  0  0  0  0  0  0  0
   10.2018   -3.3985   25.4993 N   0  0  0  0  0  0  0  0  0  0  0  0
   11.5506   -3.4299   24.9649 C   0  0  0  0  0  0  0  0  0  0  0  0
   12.6317   -3.0915   26.0050 C   0  0  0  0  0  0  0  0  0  0  0  0
   14.0014   -3.0870   25.4633 N   0  0  0  0  0  0  0  0  0  0  0  0
   15.0180   -2.8332   26.4814 C   0  0  0  0  0  0  0  0  0  0  0  0
   14.1509   -2.1877   24.2887 C   0  0  0  0  0  0  0  0  0  0  0  0
   13.6035   -0.7574   24.4689 C   0  0  0  0  0  0  0  0  0  0  0  0
   13.1730   -0.3220   25.5429 O   0  0  0  0  0  0  0  0  0  0  0  0
   13.5730    0.0973   23.4043 N   0  0  0  0  0  0  0  0  0  0  0  0
   13.1209    1.3815   23.4099 C   0  0  0  0  0  0  0  0  0  0  0  0
   13.8025    2.4958   23.3299 N   0  0  0  0  0  0  0  0  0  0  0  0
   12.9250    3.5590   23.3638 C   0  0  0  0  0  0  0  0  0  0  0  0
   11.5922    3.2199   23.4807 C   0  0  0  0  0  0  0  0  0  0  0  0
   11.4207    1.5269   23.5363 S   0  0  0  0  0  0  0  0  0  0  0  0
   10.4554    4.1840   23.5176 C   0  0  0  0  0  0  0  0  0  0  0  0
   10.9770    5.6120   23.8161 C   0  0  2  0  0  0  0  0  0  0  0  0
    9.8828    6.6441   23.5516 C   0  0  0  0  0  0  0  0  0  0  0  0
   12.2470    5.9353   22.9912 C   0  0  0  0  0  0  0  0  0  0  0  0
   13.4036    4.9692   23.3076 C   0  0  0  0  0  0  0  0  0  0  0  0
  1  2  1  0
  2  3  2  0
  3  4  1  0
  4  5  2  0
  5  6  1  0
  6  7  1  0
  7  8  1  0
  8  9  1  0
  9 10  1  0
  9 11  1  0
 11 12  1  0
 12 13  2  0
 12 14  1  0
 14 15  1  0
 15 16  2  0
 16 17  1  0
 17 18  2  0
 18 19  1  0
 18 20  1  0
 20 21  1  0
 21 22  1  6
 21 23  1  0
 23 24  1  0
  6  2  1  0
 19 15  1  0
 24 17  1  0
M  END
