
     RDKit          3D

 25 27  0  0  0  0  0  0  0  0999 V2000
    5.7105   -0.0517   18.0257 C   0  0  0  0  0  0  0  0  0  0  0  0
    5.7135   -0.8451   19.3082 C   0  0  0  0  0  0  0  0  0  0  0  0
    5.7462   -2.2496   19.2354 C   0  0  0  0  0  0  0  0  0  0  0  0
    5.7717   -3.0294   20.3925 C   0  0  0  0  0  0  0  0  0  0  0  0
    5.7662   -2.4173   21.6429 C   0  0  0  0  0  0  0  0  0  0  0  0
    5.7277   -1.0261   21.7351 C   0  0  0  0  0  0  0  0  0  0  0  0
    5.6960   -0.2215   20.5761 C   0  0  0  0  0  0  0  0  0  0  0  0
    5.6902    1.2808   20.7414 C   0  0  0  0  0  0  0  0  0  0  0  0
    6.9836    1.7530   21.1619 N   0  0  0  0  0  0  0  0  0  0  0  0
    7.3650    1.8843   22.4773 C   0  0  0  0  0  0  0  0  0  0  0  0
    6.6277    1.6599   23.4333 O   0  0  0  0  0  0  0  0  0  0  0  0
    8.7988    2.4097   22.6370 C   0  0  0  0  0  0  0  0  0  0  0  0
    9.5866    1.5265   23.5435 N   0  0  0  0  0  0  0  0  0  0  0  0
   10.8695    2.1739   23.8836 C   0  0  0  0  0  0  0  0  0  0  0  0
   11.6976    1.2963   24.8273 C   0  0  0  0  0  0  0  0  0  0  0  0
   11.9703   -0.1036   24.2334 C   0  0  0  0  0  0  0  0  0  0  0  0
   10.6145   -0.7064   23.8094 C   0  0  0  0  0  0  0  0  0  0  0  0
    9.8401    0.2367   22.8824 C   0  0  0  0  0  0  0  0  0  0  0  0
   12.7017   -0.9471   25.3050 C   0  0  0  0  0  0  0  0  0  0  0  0
   13.3672   -2.2142   24.7544 C   0  0  1  0  0  0  0  0  0  0  0  0
   14.2747   -2.8423   25.8176 C   0  0  0  0  0  0  0  0  0  0  0  0
   12.3538   -3.1736   24.4423 O   0  0  0  0  0  0  0  0  0  0  0  0
   14.1710   -1.8884   23.4929 C   0  0  0  0  0  0  0  0  0  0  0  0
   13.3364   -1.0919   22.5028 C   0  0  0  0  0  0  0  0  0  0  0  0
   12.8383    0.1013   23.1019 O   0  0  0  0  0  0  0  0  0  0  0  0
  1  2  1  0
  2  3  2  0
  3  4  1  0
  4  5  2  0
  5  6  1  0
  6  7  2  0
  7  8  1  0
  8  9  1  0
  9 10  1  0
 10 11  2  0
 10 12  1  0
 12 13  1  0
 13 14  1  0
 14 15  1  0
 15 16  1  0
 16 17  1  0
 17 18  1  0
 16 19  1  0
 19 20  1  0
 20 21  1  1
 20 22  1  0
 20 23  1  0
 23 24  1  0
 24 25  1  0
  7  2  1  0
 18 13  1  0
 25 16  1  0
M  END
