
     RDKit          3D

 25 27  0  0  0  0  0  0  0  0999 V2000
   11.6273   -1.6876   22.6412 C   0  0  0  0  0  0  0  0  0  0  0  0
   12.4802   -1.9481   23.8274 C   0  0  0  0  0  0  0  0  0  0  0  0
   12.3946   -2.8823   24.8417 C   0  0  0  0  0  0  0  0  0  0  0  0
   11.4070   -3.8378   24.9438 N   0  0  0  0  0  0  0  0  0  0  0  0
   11.1668   -4.6218   26.0549 C   0  0  0  0  0  0  0  0  0  0  0  0
   11.8211   -4.6237   27.0945 O   0  0  0  0  0  0  0  0  0  0  0  0
    9.9927   -5.5921   25.8496 C   0  0  0  0  0  0  0  0  0  0  0  0
    8.8070   -4.8979   25.2903 N   0  0  0  0  0  0  0  0  0  0  0  0
    7.7095   -4.8586   26.2611 C   0  0  0  0  0  0  0  0  0  0  0  0
    8.3865   -5.4294   23.9831 C   0  0  0  0  0  0  0  0  0  0  0  0
    7.2445   -4.7408   23.2219 C   0  0  2  0  0  0  0  0  0  0  0  0
    6.7034   -5.4841   22.0044 C   0  0  0  0  0  0  0  0  0  0  0  0
    6.0136   -4.3840   21.1996 C   0  0  0  0  0  0  0  0  0  0  0  0
    6.7987   -3.1903   21.4917 N   0  0  0  0  0  0  0  0  0  0  0  0
    6.6814   -2.0021   20.8089 C   0  0  0  0  0  0  0  0  0  0  0  0
    5.7781   -1.8428   19.7453 C   0  0  0  0  0  0  0  0  0  0  0  0
    5.6539   -0.6345   19.0468 C   0  0  0  0  0  0  0  0  0  0  0  0
    6.4382    0.4566   19.3972 C   0  0  0  0  0  0  0  0  0  0  0  0
    7.3422    0.3348   20.4444 C   0  0  0  0  0  0  0  0  0  0  0  0
    7.4573   -0.8781   21.1360 C   0  0  0  0  0  0  0  0  0  0  0  0
    7.7121   -3.4088   22.6088 C   0  0  0  0  0  0  0  0  0  0  0  0
   13.5016   -2.6145   25.6748 C   0  0  0  0  0  0  0  0  0  0  0  0
   14.2384   -1.5932   25.2302 N   0  0  0  0  0  0  0  0  0  0  0  0
   13.6066   -1.2107   24.1070 N   0  0  0  0  0  0  0  0  0  0  0  0
   14.1413   -0.1070   23.3433 C   0  0  0  0  0  0  0  0  0  0  0  0
  1  2  1  0
  2  3  2  0
  3  4  1  0
  4  5  1  0
  5  6  2  0
  5  7  1  0
  7  8  1  0
  8  9  1  0
  8 10  1  0
 11 10  1  6
 11 12  1  0
 12 13  1  0
 13 14  1  0
 14 15  1  0
 15 16  2  0
 16 17  1  0
 17 18  2  0
 18 19  1  0
 19 20  2  0
 14 21  1  0
  3 22  1  0
 22 23  2  0
 23 24  1  0
 24 25  1  0
 24  2  1  0
 21 11  1  0
 20 15  1  0
M  END
