
     RDKit          3D

 24 26  0  0  0  0  0  0  0  0999 V2000
    8.6355   -2.4646   22.2505 C   0  0  0  0  0  0  0  0  0  0  0  0
    9.7988   -2.6275   23.0522 O   0  0  0  0  0  0  0  0  0  0  0  0
    9.7695   -3.6161   24.0098 C   0  0  0  0  0  0  0  0  0  0  0  0
    8.7028   -4.4935   24.2231 C   0  0  0  0  0  0  0  0  0  0  0  0
    8.7839   -5.4626   25.2257 C   0  0  0  0  0  0  0  0  0  0  0  0
    9.9270   -5.5596   26.0160 C   0  0  0  0  0  0  0  0  0  0  0  0
   10.9983   -4.6882   25.8107 C   0  0  0  0  0  0  0  0  0  0  0  0
   10.9269   -3.7152   24.8130 C   0  0  0  0  0  0  0  0  0  0  0  0
   11.9640   -2.8049   24.5465 N   0  0  0  0  0  0  0  0  0  0  0  0
   13.2033   -2.6774   25.1371 C   0  0  0  0  0  0  0  0  0  0  0  0
   13.6801   -3.3947   26.0112 O   0  0  0  0  0  0  0  0  0  0  0  0
   14.0194   -1.5284   24.5179 C   0  0  0  0  0  0  0  0  0  0  0  0
   13.2334   -0.2655   24.4991 N   0  0  0  0  0  0  0  0  0  0  0  0
   13.3011    0.3877   25.8155 C   0  0  0  0  0  0  0  0  0  0  0  0
   13.7233    0.6292   23.4392 C   0  0  0  0  0  0  0  0  0  0  0  0
   12.9052    1.9104   23.3478 C   0  0  0  0  0  0  0  0  0  0  0  0
   11.5009    1.8289   23.0968 C   0  0  0  0  0  0  0  0  0  0  0  0
   10.6608    2.9566   22.9914 C   0  0  0  0  0  0  0  0  0  0  0  0
   11.3138    4.1916   23.1542 C   0  0  0  0  0  0  0  0  0  0  0  0
   10.8093    5.4303   23.1085 N   0  0  0  0  0  0  0  0  0  0  0  0
   11.8802    6.2805   23.3315 O   0  0  0  0  0  0  0  0  0  0  0  0
   13.0636    5.5844   23.5183 N   0  0  0  0  0  0  0  0  0  0  0  0
   12.7420    4.2891   23.4153 C   0  0  0  0  0  0  0  0  0  0  0  0
   13.5650    3.1541   23.5233 C   0  0  0  0  0  0  0  0  0  0  0  0
  1  2  1  0
  2  3  1  0
  3  4  2  0
  4  5  1  0
  5  6  2  0
  6  7  1  0
  7  8  2  0
  8  9  1  0
  9 10  1  0
 10 11  2  0
 10 12  1  0
 12 13  1  0
 13 14  1  0
 13 15  1  0
 15 16  1  0
 16 17  1  0
 17 18  2  0
 18 19  1  0
 19 20  2  0
 20 21  1  0
 21 22  1  0
 22 23  2  0
 23 24  1  0
  8  3  1  0
 24 16  2  0
 23 19  1  0
M  END
