
     RDKit          3D

 24 26  0  0  0  0  0  0  0  0999 V2000
    5.2606    0.7586   17.7003 C   0  0  0  0  0  0  0  0  0  0  0  0
    5.8886    0.2615   18.9395 C   0  0  0  0  0  0  0  0  0  0  0  0
    5.6066   -0.9708   19.4657 N   0  0  0  0  0  0  0  0  0  0  0  0
    6.3595   -1.0307   20.5446 C   0  0  0  0  0  0  0  0  0  0  0  0
    6.4516   -2.1564   21.5004 C   0  0  0  0  0  0  0  0  0  0  0  0
    7.0692    0.1340   20.6488 N   0  0  0  0  0  0  0  0  0  0  0  0
    8.0422    0.5224   21.6443 C   0  0  0  0  0  0  0  0  0  0  0  0
    8.9409   -0.6209   22.1142 C   0  0  0  0  0  0  0  0  0  0  0  0
   10.2394   -0.2043   22.8145 C   0  0  0  0  0  0  0  0  0  0  0  0
   11.3017   -1.1673   22.5422 N   0  0  0  0  0  0  0  0  0  0  0  0
   11.6630   -1.9715   23.6507 C   0  0  0  0  0  0  0  0  0  0  0  0
   10.7975   -2.8957   24.0999 N   0  0  0  0  0  0  0  0  0  0  0  0
   11.1493   -3.6595   25.1418 C   0  0  0  0  0  0  0  0  0  0  0  0
   10.2562   -4.5915   25.6044 N   0  0  0  0  0  0  0  0  0  0  0  0
    8.8281   -4.4010   25.4171 C   0  0  0  0  0  0  0  0  0  0  0  0
    8.2025   -5.1019   26.6262 C   0  0  0  0  0  0  0  0  0  0  0  0
    9.2573   -6.1171   27.0433 C   0  0  0  0  0  0  0  0  0  0  0  0
   10.5618   -5.3666   26.7900 C   0  0  0  0  0  0  0  0  0  0  0  0
   12.3315   -3.5429   25.7586 N   0  0  0  0  0  0  0  0  0  0  0  0
   13.1933   -2.6051   25.3165 C   0  0  0  0  0  0  0  0  0  0  0  0
   14.4980   -2.5356   26.0549 C   0  0  0  0  0  0  0  0  0  0  0  0
   12.8952   -1.7569   24.2604 C   0  0  0  0  0  0  0  0  0  0  0  0
   13.8582   -0.7223   23.7609 C   0  0  0  0  0  0  0  0  0  0  0  0
    6.7774    0.9784   19.6371 N   0  0  0  0  0  0  0  0  0  0  0  0
  1  2  1  0
  2  3  1  0
  3  4  2  0
  4  5  1  0
  4  6  1  0
  6  7  1  0
  7  8  1  0
  8  9  1  0
  9 10  1  0
 10 11  1  0
 11 12  2  0
 12 13  1  0
 13 14  1  0
 14 15  1  0
 15 16  1  0
 16 17  1  0
 17 18  1  0
 13 19  2  0
 19 20  1  0
 20 21  1  0
 20 22  2  0
 22 23  1  0
  6 24  1  0
 24  2  2  0
 22 11  1  0
 18 14  1  0
M  END
