
     RDKit          3D

 25 28  0  0  0  0  0  0  0  0999 V2000
    5.8614   -3.5519   21.8445 C   0  0  0  0  0  0  0  0  0  0  0  0
    7.0203   -3.9810   22.6713 C   0  0  0  0  0  0  0  0  0  0  0  0
    6.9996   -5.1549   23.3845 N   0  0  0  0  0  0  0  0  0  0  0  0
    8.1705   -5.2960   24.0781 C   0  0  0  0  0  0  0  0  0  0  0  0
    8.9526   -4.1963   23.8122 C   0  0  0  0  0  0  0  0  0  0  0  0
    8.2437   -3.3593   22.8970 C   0  0  0  0  0  0  0  0  0  0  0  0
    8.6438   -2.0604   22.3492 C   0  0  0  0  0  0  0  0  0  0  0  0
    8.9336   -1.9504   21.1586 O   0  0  0  0  0  0  0  0  0  0  0  0
    8.6648   -0.9641   23.2174 N   0  0  0  0  0  0  0  0  0  0  0  0
    8.3108   -1.0455   24.6339 C   0  0  0  0  0  0  0  0  0  0  0  0
    9.5755   -1.1355   25.4879 C   0  0  0  0  0  0  0  0  0  0  0  0
   10.5371    0.0183   25.1884 C   0  0  0  0  0  0  0  0  0  0  0  0
   10.8333    0.1632   23.6780 C   0  0  2  0  0  0  0  0  0  0  0  0
   11.8339   -0.9124   23.1625 C   0  0  0  0  0  0  0  0  0  0  0  0
   13.2486   -0.3565   23.4001 C   0  0  0  0  0  0  0  0  0  0  0  0
   12.9917    1.0999   23.2866 C   0  0  0  0  0  0  0  0  0  0  0  0
   13.8376    2.1512   23.1231 C   0  0  0  0  0  0  0  0  0  0  0  0
   13.3922    3.4231   23.0922 N   0  0  0  0  0  0  0  0  0  0  0  0
   12.0653    3.6508   23.2413 C   0  0  0  0  0  0  0  0  0  0  0  0
   11.6058    4.9706   23.2354 N   0  0  0  0  0  0  0  0  0  0  0  0
   10.4355    5.1988   24.0672 C   0  0  0  0  0  0  0  0  0  0  0  0
   12.6597    5.9697   23.2993 C   0  0  0  0  0  0  0  0  0  0  0  0
   11.1721    2.6566   23.4236 N   0  0  0  0  0  0  0  0  0  0  0  0
   11.6615    1.4105   23.4334 C   0  0  0  0  0  0  0  0  0  0  0  0
    9.5193    0.1763   22.8772 C   0  0  0  0  0  0  0  0  0  0  0  0
  1  2  1  0
  2  3  1  0
  3  4  1  0
  4  5  2  0
  5  6  1  0
  6  7  1  0
  7  8  2  0
  7  9  1  0
  9 10  1  0
 10 11  1  0
 11 12  1  0
 13 12  1  1
 13 14  1  0
 14 15  1  0
 15 16  1  0
 16 17  2  0
 17 18  1  0
 18 19  2  0
 19 20  1  0
 20 21  1  0
 20 22  1  0
 19 23  1  0
 23 24  2  0
 13 25  1  0
  6  2  2  0
 25  9  1  0
 24 13  1  0
 24 16  1  0
M  END
