
     RDKit          3D

 25 27  0  0  0  0  0  0  0  0999 V2000
   11.7526   -3.8198   25.3351 C   0  0  0  0  0  0  0  0  0  0  0  0
   12.8045   -2.9169   25.7305 N   0  0  0  0  0  0  0  0  0  0  0  0
   14.0076   -3.2963   26.2540 C   0  0  0  0  0  0  0  0  0  0  0  0
   14.7649   -2.2586   26.5234 N   0  0  0  0  0  0  0  0  0  0  0  0
   14.0240   -1.1668   26.1613 C   0  0  0  0  0  0  0  0  0  0  0  0
   12.7874   -1.5423   25.6738 C   0  0  0  0  0  0  0  0  0  0  0  0
   11.6678   -0.7140   25.1579 C   0  0  0  0  0  0  0  0  0  0  0  0
   12.1071    0.2661   24.1666 N   0  0  0  0  0  0  0  0  0  0  0  0
   13.2539   -0.0804   23.3058 C   0  0  0  0  0  0  0  0  0  0  0  0
   13.0168   -1.3264   22.4389 C   0  0  0  0  0  0  0  0  0  0  0  0
   14.1378   -1.6516   21.6213 O   0  0  0  0  0  0  0  0  0  0  0  0
   11.2003    1.1871   23.6131 C   0  0  0  0  0  0  0  0  0  0  0  0
   11.5449    1.9983   22.7523 O   0  0  0  0  0  0  0  0  0  0  0  0
    9.7420    1.1675   24.0477 C   0  0  1  0  0  0  0  0  0  0  0  0
    8.8734    0.1477   23.2902 C   0  0  0  0  0  0  0  0  0  0  0  0
    8.7433    0.2298   21.8882 C   0  0  0  0  0  0  0  0  0  0  0  0
    7.9803   -0.6918   21.1675 C   0  0  0  0  0  0  0  0  0  0  0  0
    7.3372   -1.7182   21.8412 C   0  0  0  0  0  0  0  0  0  0  0  0
    6.6073   -2.6073   21.1553 F   0  0  0  0  0  0  0  0  0  0  0  0
    7.4435   -1.8385   23.2194 C   0  0  0  0  0  0  0  0  0  0  0  0
    8.2072   -0.9125   23.9356 C   0  0  0  0  0  0  0  0  0  0  0  0
    9.3935    1.5567   25.4847 C   0  0  0  0  0  0  0  0  0  0  0  0
    9.0791    2.5413   24.3978 C   0  0  0  0  0  0  0  0  0  0  0  0
    9.9013    3.8100   24.3587 C   0  0  0  0  0  0  0  0  0  0  0  0
    7.6210    2.7848   24.0784 C   0  0  0  0  0  0  0  0  0  0  0  0
  1  2  1  0
  2  3  1  0
  3  4  2  0
  4  5  1  0
  5  6  2  0
  6  7  1  0
  7  8  1  0
  8  9  1  0
  9 10  1  0
 10 11  1  0
  8 12  1  0
 12 13  2  0
 14 12  1  1
 14 15  1  0
 15 16  2  0
 16 17  1  0
 17 18  2  0
 18 19  1  0
 18 20  1  0
 20 21  2  0
 14 22  1  0
 22 23  1  0
 23 24  1  0
 23 25  1  0
  6  2  1  0
 23 14  1  0
 21 15  1  0
M  END
