
     RDKit          3D

 24 26  0  0  0  0  0  0  0  0999 V2000
   10.5752    2.6605   24.1430 C   0  0  0  0  0  0  0  0  0  0  0  0
   11.9465    2.2858   23.8984 N   0  0  0  0  0  0  0  0  0  0  0  0
   12.8498    3.0652   23.2307 C   0  0  0  0  0  0  0  0  0  0  0  0
   14.0047    2.4587   23.0944 N   0  0  0  0  0  0  0  0  0  0  0  0
   13.8404    1.2416   23.6973 C   0  0  0  0  0  0  0  0  0  0  0  0
   12.5775    1.1108   24.2446 C   0  0  0  0  0  0  0  0  0  0  0  0
   11.9467   -0.0268   24.9810 C   0  0  0  0  0  0  0  0  0  0  0  0
   12.0758   -1.3484   24.3448 N   0  0  0  0  0  0  0  0  0  0  0  0
   13.3955   -1.9532   24.5567 C   0  0  0  0  0  0  0  0  0  0  0  0
   13.9464   -1.7864   25.9825 C   0  0  0  0  0  0  0  0  0  0  0  0
   14.9650   -2.7560   26.2273 O   0  0  0  0  0  0  0  0  0  0  0  0
   11.6535   -1.3791   22.9363 C   0  0  0  0  0  0  0  0  0  0  0  0
   10.2636   -1.9310   22.7509 C   0  0  0  0  0  0  0  0  0  0  0  0
    9.6519   -2.9620   23.4369 C   0  0  0  0  0  0  0  0  0  0  0  0
    8.3206   -3.1956   22.9898 C   0  0  0  0  0  0  0  0  0  0  0  0
    7.9413   -2.3269   21.9853 C   0  0  0  0  0  0  0  0  0  0  0  0
    6.6284   -2.2636   21.2514 C   0  0  0  0  0  0  0  0  0  0  0  0
    6.4306   -0.9744   20.5593 N   0  0  0  0  0  0  0  0  0  0  0  0
    5.5208   -0.1227   21.3415 C   0  0  0  0  0  0  0  0  0  0  0  0
    5.3330    1.2445   20.6829 C   0  0  0  0  0  0  0  0  0  0  0  0
    4.8352    1.1049   19.2498 C   0  0  0  0  0  0  0  0  0  0  0  0
    5.7350    0.1571   18.4669 C   0  0  0  0  0  0  0  0  0  0  0  0
    5.9097   -1.1767   19.1959 C   0  0  0  0  0  0  0  0  0  0  0  0
    9.2055   -1.2420   21.5896 S   0  0  0  0  0  0  0  0  0  0  0  0
  1  2  1  0
  2  3  1  0
  3  4  2  0
  4  5  1  0
  5  6  2  0
  6  7  1  0
  7  8  1  0
  8  9  1  0
  9 10  1  0
 10 11  1  0
  8 12  1  0
 12 13  1  0
 13 14  2  0
 14 15  1  0
 15 16  2  0
 16 17  1  0
 17 18  1  0
 18 19  1  0
 19 20  1  0
 20 21  1  0
 21 22  1  0
 22 23  1  0
 16 24  1  0
  6  2  1  0
 24 13  1  0
 23 18  1  0
M  END
