
     RDKit          3D

 24 25  0  0  0  0  0  0  0  0999 V2000
    5.6016    0.2875   18.2174 C   0  0  0  0  0  0  0  0  0  0  0  0
    6.2883   -0.2042   19.4574 C   0  0  0  0  0  0  0  0  0  0  0  0
    6.1021   -1.5150   19.9015 C   0  0  0  0  0  0  0  0  0  0  0  0
    6.7150   -1.9808   21.0771 C   0  0  0  0  0  0  0  0  0  0  0  0
    6.4690   -3.4092   21.4892 C   0  0  0  0  0  0  0  0  0  0  0  0
    7.5100   -1.0990   21.8498 C   0  0  0  0  0  0  0  0  0  0  0  0
    8.1551   -1.5758   23.1427 C   0  0  0  0  0  0  0  0  0  0  0  0
    9.6205   -1.9809   22.9965 C   0  0  0  0  0  0  0  0  0  0  0  0
   10.2072   -1.9434   21.9110 O   0  0  0  0  0  0  0  0  0  0  0  0
   10.2716   -2.4439   24.1409 N   0  0  0  0  0  0  0  0  0  0  0  0
    9.6483   -2.5670   25.4654 C   0  0  0  0  0  0  0  0  0  0  0  0
   10.0261   -3.8932   26.1593 C   0  0  0  0  0  0  0  0  0  0  0  0
    9.6689   -5.0925   25.3819 N   0  0  0  0  0  0  0  0  0  0  0  0
   10.0764   -6.3277   26.0529 C   0  0  0  0  0  0  0  0  0  0  0  0
    8.2242   -5.1188   25.1351 C   0  0  0  0  0  0  0  0  0  0  0  0
   11.6728   -2.8356   24.0294 C   0  0  0  0  0  0  0  0  0  0  0  0
   12.5098   -1.8508   24.7536 C   0  0  0  0  0  0  0  0  0  0  0  0
   13.6523   -1.9599   25.5141 C   0  0  0  0  0  0  0  0  0  0  0  0
   14.0446   -0.7332   25.9855 N   0  0  0  0  0  0  0  0  0  0  0  0
   13.1565    0.1179   25.5226 C   0  0  0  0  0  0  0  0  0  0  0  0
   12.2064   -0.5100   24.7731 N   0  0  0  0  0  0  0  0  0  0  0  0
    7.7142    0.2256   21.3930 C   0  0  0  0  0  0  0  0  0  0  0  0
    8.5630    1.2125   22.1505 C   0  0  0  0  0  0  0  0  0  0  0  0
    7.0850    0.6587   20.2134 C   0  0  0  0  0  0  0  0  0  0  0  0
  1  2  1  0
  2  3  2  0
  3  4  1  0
  4  5  1  0
  4  6  2  0
  6  7  1  0
  7  8  1  0
  8  9  2  0
  8 10  1  0
 10 11  1  0
 11 12  1  0
 12 13  1  0
 13 14  1  0
 13 15  1  0
 10 16  1  0
 16 17  1  0
 17 18  2  0
 18 19  1  0
 19 20  2  0
 20 21  1  0
  6 22  1  0
 22 23  1  0
 22 24  2  0
 24  2  1  0
 21 17  1  0
M  END
