
     RDKit          3D

 24 26  0  0  0  0  0  0  0  0999 V2000
   13.1040    5.7054   22.7861 C   0  0  0  0  0  0  0  0  0  0  0  0
   12.6329    4.3080   22.9256 C   0  0  0  0  0  0  0  0  0  0  0  0
   11.3228    3.8095   22.7676 C   0  0  0  0  0  0  0  0  0  0  0  0
   11.4131    2.4548   23.0079 C   0  0  0  0  0  0  0  0  0  0  0  0
   10.3641    1.4076   22.9988 C   0  0  0  0  0  0  0  0  0  0  0  0
   12.7380    2.2178   23.2756 N   0  0  0  0  0  0  0  0  0  0  0  0
   13.3801    0.9583   23.6082 C   0  0  0  0  0  0  0  0  0  0  0  0
   13.2601    0.5784   25.0860 C   0  0  0  0  0  0  0  0  0  0  0  0
   13.9695   -0.7330   25.4455 C   0  0  0  0  0  0  0  0  0  0  0  0
   13.3957   -1.9184   24.7924 N   0  0  0  0  0  0  0  0  0  0  0  0
   14.3880   -2.5506   23.9194 C   0  0  0  0  0  0  0  0  0  0  0  0
   12.7813   -2.8913   25.7147 C   0  0  0  0  0  0  0  0  0  0  0  0
   11.4801   -3.5610   25.2843 C   0  0  0  0  0  0  0  0  0  0  0  0
   11.0377   -4.6595   25.9201 C   0  0  0  0  0  0  0  0  0  0  0  0
    9.7664   -5.2853   25.5010 C   0  0  0  0  0  0  0  0  0  0  0  0
    9.3639   -6.2939   26.0733 O   0  0  0  0  0  0  0  0  0  0  0  0
    9.1329   -4.6432   24.4684 N   0  0  0  0  0  0  0  0  0  0  0  0
    7.9373   -5.0388   23.9090 C   0  0  0  0  0  0  0  0  0  0  0  0
    7.5097   -4.2455   22.9165 C   0  0  0  0  0  0  0  0  0  0  0  0
    6.2671   -4.3964   22.1146 C   0  0  0  0  0  0  0  0  0  0  0  0
    8.6266   -2.9266   22.6373 S   0  0  0  0  0  0  0  0  0  0  0  0
    9.6789   -3.5093   23.9156 C   0  0  0  0  0  0  0  0  0  0  0  0
   10.7834   -2.9445   24.2639 N   0  0  0  0  0  0  0  0  0  0  0  0
   13.4931    3.3357   23.2438 N   0  0  0  0  0  0  0  0  0  0  0  0
  1  2  1  0
  2  3  1  0
  3  4  2  0
  4  5  1  0
  4  6  1  0
  6  7  1  0
  7  8  1  0
  8  9  1  0
  9 10  1  0
 10 11  1  0
 10 12  1  0
 12 13  1  0
 13 14  2  0
 14 15  1  0
 15 16  2  0
 15 17  1  0
 17 18  1  0
 18 19  2  0
 19 20  1  0
 19 21  1  0
 21 22  1  0
 22 23  2  0
  6 24  1  0
 24  2  2  0
 23 13  1  0
 22 17  1  0
M  END
