
     RDKit          3D

 24 26  0  0  0  0  0  0  0  0999 V2000
   14.4830   -2.5363   24.6392 C   0  0  0  0  0  0  0  0  0  0  0  0
   13.2664   -2.7351   25.3478 O   0  0  0  0  0  0  0  0  0  0  0  0
   12.1133   -2.3735   24.7087 C   0  0  0  0  0  0  0  0  0  0  0  0
   12.2916   -1.8768   23.4171 C   0  0  0  0  0  0  0  0  0  0  0  0
   11.1945   -1.4714   22.6506 C   0  0  0  0  0  0  0  0  0  0  0  0
    9.8929   -1.5592   23.1620 C   0  0  0  0  0  0  0  0  0  0  0  0
    8.7575   -1.1241   22.3581 C   0  0  0  0  0  0  0  0  0  0  0  0
    8.7743    0.1982   22.0421 O   0  0  0  0  0  0  0  0  0  0  0  0
    7.6495    0.5239   21.3304 N   0  0  0  0  0  0  0  0  0  0  0  0
    6.9609   -0.6120   21.1603 C   0  0  0  0  0  0  0  0  0  0  0  0
    5.7962   -0.7012   20.4431 N   0  0  0  0  0  0  0  0  0  0  0  0
    5.8296   -1.3195   19.1118 C   0  0  0  0  0  0  0  0  0  0  0  0
    6.1296   -0.2690   18.0436 C   0  0  0  0  0  0  0  0  0  0  0  0
    5.1357    0.8903   18.1048 C   0  0  0  0  0  0  0  0  0  0  0  0
    5.0777    1.4999   19.5166 C   0  0  1  0  0  0  0  0  0  0  0  0
    3.9930    2.5830   19.6474 C   0  0  0  0  0  0  0  0  0  0  0  0
    4.4306    3.7568   20.3976 N   0  0  0  0  0  0  0  0  0  0  0  0
    4.8185    0.3935   20.5571 C   0  0  0  0  0  0  0  0  0  0  0  0
    7.6059   -1.6943   21.8419 C   0  0  0  0  0  0  0  0  0  0  0  0
    7.2218   -3.0722   22.0053 C   0  0  0  0  0  0  0  0  0  0  0  0
    7.8601   -3.9287   22.6020 O   0  0  0  0  0  0  0  0  0  0  0  0
    6.0311   -3.4189   21.4673 O   0  0  0  0  0  0  0  0  0  0  0  0
    9.7232   -2.0494   24.4625 C   0  0  0  0  0  0  0  0  0  0  0  0
   10.8234   -2.4568   25.2300 C   0  0  0  0  0  0  0  0  0  0  0  0
  1  2  1  0
  2  3  1  0
  3  4  2  0
  4  5  1  0
  5  6  2  0
  6  7  1  0
  7  8  1  0
  8  9  1  0
  9 10  2  0
 10 11  1  0
 11 12  1  0
 12 13  1  0
 13 14  1  0
 14 15  1  0
 15 16  1  6
 16 17  1  0
 15 18  1  0
 10 19  1  0
 19 20  1  0
 20 21  2  0
 20 22  1  0
  6 23  1  0
 23 24  2  0
 24  3  1  0
 19  7  2  0
 18 11  1  0
M  END
