
     RDKit          3D

 25 26  0  0  0  0  0  0  0  0999 V2000
   14.4128   -2.6615   26.0672 C   0  0  0  0  0  0  0  0  0  0  0  0
   14.3997   -1.5894   25.1320 O   0  0  0  0  0  0  0  0  0  0  0  0
   13.9932   -2.0178   23.8258 C   0  0  0  0  0  0  0  0  0  0  0  0
   12.5746   -1.5972   23.5056 C   0  0  0  0  0  0  0  0  0  0  0  0
   11.5291   -2.5281   23.6602 C   0  0  0  0  0  0  0  0  0  0  0  0
   10.1979   -2.1765   23.4067 C   0  0  0  0  0  0  0  0  0  0  0  0
    9.0869   -3.1953   23.5589 C   0  0  0  0  0  0  0  0  0  0  0  0
    9.4087   -4.2477   24.5458 N   0  0  0  0  0  0  0  0  0  0  0  0
    8.9333   -3.8526   25.8971 C   0  0  0  0  0  0  0  0  0  0  0  0
    9.3275   -4.8773   26.9919 C   0  0  0  0  0  0  0  0  0  0  0  0
    8.5509   -4.7386   28.2410 N   0  0  0  0  0  0  0  0  0  0  0  0
    7.1221   -4.9080   27.9644 C   0  0  0  0  0  0  0  0  0  0  0  0
    8.9747   -5.6988   29.2615 C   0  0  0  0  0  0  0  0  0  0  0  0
    8.7755   -5.5216   24.1408 C   0  0  0  0  0  0  0  0  0  0  0  0
    7.4103   -5.2993   23.5967 C   0  0  0  0  0  0  0  0  0  0  0  0
    6.9417   -5.0590   22.3252 C   0  0  0  0  0  0  0  0  0  0  0  0
    5.5753   -4.9392   22.3214 N   0  0  0  0  0  0  0  0  0  0  0  0
    5.1997   -5.1003   23.5732 C   0  0  0  0  0  0  0  0  0  0  0  0
    3.8187   -5.0465   24.1032 C   0  0  0  0  0  0  0  0  0  0  0  0
    6.2837   -5.3318   24.3787 N   0  0  0  0  0  0  0  0  0  0  0  0
    9.9179   -0.8709   22.9908 C   0  0  0  0  0  0  0  0  0  0  0  0
   10.9432    0.0690   22.8496 C   0  0  0  0  0  0  0  0  0  0  0  0
   12.2714   -0.2812   23.1126 C   0  0  0  0  0  0  0  0  0  0  0  0
   13.3350    0.5772   23.0132 O   0  0  0  0  0  0  0  0  0  0  0  0
   13.2562    1.8061   23.7241 C   0  0  0  0  0  0  0  0  0  0  0  0
  1  2  1  0
  2  3  1  0
  3  4  1  0
  4  5  2  0
  5  6  1  0
  6  7  1  0
  7  8  1  0
  8  9  1  0
  9 10  1  0
 10 11  1  0
 11 12  1  0
 11 13  1  0
  8 14  1  0
 14 15  1  0
 15 16  2  0
 16 17  1  0
 17 18  2  0
 18 19  1  0
 18 20  1  0
  6 21  2  0
 21 22  1  0
 22 23  2  0
 23 24  1  0
 24 25  1  0
 23  4  1  0
 20 15  1  0
M  END
