
     RDKit          3D

 24 27  0  0  0  0  0  0  0  0999 V2000
    9.4717   -3.3417   23.5025 O   0  0  0  0  0  0  0  0  0  0  0  0
    9.2304   -2.1421   23.4103 C   0  0  0  0  0  0  0  0  0  0  0  0
    8.0875   -1.7033   22.5691 C   0  0  0  0  0  0  0  0  0  0  0  0
    7.7524   -0.3605   22.3781 C   0  0  0  0  0  0  0  0  0  0  0  0
    6.6754   -0.0337   21.5562 C   0  0  0  0  0  0  0  0  0  0  0  0
    5.9753   -1.0632   20.9465 C   0  0  0  0  0  0  0  0  0  0  0  0
    6.2803   -2.3702   21.0984 N   0  0  0  0  0  0  0  0  0  0  0  0
    7.3373   -2.6611   21.8986 C   0  0  0  0  0  0  0  0  0  0  0  0
    9.9908   -1.1409   24.0498 N   0  0  0  0  0  0  0  0  0  0  0  0
    9.4793   -0.8102   25.3893 C   0  0  0  0  0  0  0  0  0  0  0  0
   10.1845    0.3613   26.0583 C   0  0  0  0  0  0  0  0  0  0  0  0
   11.6988    0.1704   26.0397 C   0  0  0  0  0  0  0  0  0  0  0  0
   12.2165   -0.0184   24.5926 C   0  0  1  0  0  0  0  0  0  0  0  0
   12.0462    1.3410   23.8307 C   0  0  0  0  0  0  0  0  0  0  0  0
   10.8849    1.8236   23.3384 C   0  0  0  0  0  0  0  0  0  0  0  0
   10.7258    3.1636   22.6773 C   0  0  0  0  0  0  0  0  0  0  0  0
   11.8375    4.0245   22.9180 O   0  0  0  0  0  0  0  0  0  0  0  0
   13.0661    3.3529   22.6544 C   0  0  0  0  0  0  0  0  0  0  0  0
   13.2749    2.2292   23.6724 C   0  0  0  0  0  0  0  0  0  0  0  0
   13.7090   -0.4412   24.6402 C   0  0  0  0  0  0  0  0  0  0  0  0
   14.2137   -0.6775   23.3249 O   0  0  0  0  0  0  0  0  0  0  0  0
   13.5769   -1.7878   22.6971 C   0  0  0  0  0  0  0  0  0  0  0  0
   12.0659   -1.6041   22.5976 C   0  0  0  0  0  0  0  0  0  0  0  0
   11.4709   -1.2725   23.9869 C   0  0  2  0  0  0  0  0  0  0  0  0
  1  2  2  0
  2  3  1  0
  3  4  2  0
  4  5  1  0
  5  6  2  0
  6  7  1  0
  7  8  2  0
  2  9  1  0
  9 10  1  0
 10 11  1  0
 11 12  1  0
 12 13  1  0
 13 14  1  6
 14 15  2  0
 15 16  1  0
 16 17  1  0
 17 18  1  0
 18 19  1  0
 13 20  1  0
 20 21  1  0
 21 22  1  0
 22 23  1  0
 24 23  1  6
  8  3  1  0
 24  9  1  0
 24 13  1  0
 19 14  1  0
M  END
