
     RDKit          3D

 24 27  0  0  0  0  0  0  0  0999 V2000
    5.7111   -2.0711   20.5377 C   0  0  0  0  0  0  0  0  0  0  0  0
    5.7870   -0.6351   20.7535 N   0  0  0  0  0  0  0  0  0  0  0  0
    6.4647   -0.1693   21.8722 C   0  0  0  0  0  0  0  0  0  0  0  0
    6.5627    1.1437   22.1275 C   0  0  0  0  0  0  0  0  0  0  0  0
    7.3239    1.5630   23.3378 C   0  0  0  0  0  0  0  0  0  0  0  0
    6.8910    2.4825   24.0304 O   0  0  0  0  0  0  0  0  0  0  0  0
    8.4928    0.8602   23.6329 N   0  0  0  0  0  0  0  0  0  0  0  0
    9.2228    1.2882   24.8236 C   0  0  0  0  0  0  0  0  0  0  0  0
   10.0657    0.1626   25.4115 C   0  0  0  0  0  0  0  0  0  0  0  0
   11.0032   -0.4578   24.3579 C   0  0  0  0  0  0  0  0  0  0  0  0
   10.1635   -0.9008   23.1439 C   0  0  0  0  0  0  0  0  0  0  0  0
    9.3213    0.2444   22.5921 C   0  0  0  0  0  0  0  0  0  0  0  0
   11.9087    0.5681   23.8539 O   0  0  0  0  0  0  0  0  0  0  0  0
   13.0592    0.8134   24.6781 C   0  0  0  0  0  0  0  0  0  0  0  0
   13.9723   -0.4161   24.7302 C   0  0  0  0  0  0  0  0  0  0  0  0
   13.1401   -1.5934   25.1098 C   0  0  0  0  0  0  0  0  0  0  0  0
   13.7884   -3.0110   25.7772 S   0  0  0  0  0  0  0  0  0  0  0  0
   12.2373   -3.7280   25.8731 C   0  0  0  0  0  0  0  0  0  0  0  0
   11.2488   -2.8921   25.3974 C   0  0  0  0  0  0  0  0  0  0  0  0
   11.7704   -1.6393   24.9393 C   0  0  0  0  0  0  0  0  0  0  0  0
    6.0042    2.1013   21.2000 C   0  0  0  0  0  0  0  0  0  0  0  0
    5.3475    1.6836   20.1097 C   0  0  0  0  0  0  0  0  0  0  0  0
    5.1922    0.2269   19.8312 C   0  0  0  0  0  0  0  0  0  0  0  0
    4.5701   -0.1243   18.8332 O   0  0  0  0  0  0  0  0  0  0  0  0
  1  2  1  0
  2  3  1  0
  3  4  2  0
  4  5  1  0
  5  6  2  0
  5  7  1  0
  7  8  1  0
  8  9  1  0
  9 10  1  0
 10 11  1  0
 11 12  1  0
 10 13  1  0
 13 14  1  0
 14 15  1  0
 15 16  1  0
 16 17  1  0
 17 18  1  0
 18 19  2  0
 19 20  1  0
  4 21  1  0
 21 22  2  0
 22 23  1  0
 23 24  2  0
 23  2  1  0
 12  7  1  0
 20 16  2  0
 20 10  1  0
M  END
