
     RDKit          3D

 16 16  0  0  0  0  0  0  0  0999 V2000
    4.7359    0.4204   25.1572 C   0  0  0  0  0  0  0  0  0  0  0  0
    5.5557   -0.7215   25.3674 O   0  0  0  0  0  0  0  0  0  0  0  0
    6.8184   -0.7043   24.8368 C   0  0  0  0  0  0  0  0  0  0  0  0
    7.9474   -0.1942   25.4760 C   0  0  0  0  0  0  0  0  0  0  0  0
    9.2031   -0.2143   24.8378 C   0  0  0  0  0  0  0  0  0  0  0  0
   10.3431    0.3228   25.6049 C   0  0  0  0  0  0  0  0  0  0  0  0
   11.3458    0.8459   25.1640 O   0  0  0  0  0  0  0  0  0  0  0  0
   10.1507    0.1415   26.9242 O   0  0  0  0  0  0  0  0  0  0  0  0
    9.3439   -0.7564   23.5520 C   0  0  0  0  0  0  0  0  0  0  0  0
   11.1923   -0.7282   22.5229 I   0  0  0  0  0  0  0  0  0  0  0  0
    8.2140   -1.2969   22.9173 C   0  0  0  0  0  0  0  0  0  0  0  0
    8.3282   -1.8120   21.6473 O   0  0  0  0  0  0  0  0  0  0  0  0
    7.9074   -0.8631   20.6646 C   0  0  0  0  0  0  0  0  0  0  0  0
    6.9572   -1.2358   23.5454 C   0  0  0  0  0  0  0  0  0  0  0  0
    5.8502   -1.7477   22.9080 O   0  0  0  0  0  0  0  0  0  0  0  0
    5.8316   -3.1697   23.0357 C   0  0  0  0  0  0  0  0  0  0  0  0
  1  2  1  0
  2  3  1  0
  3  4  2  0
  4  5  1  0
  5  6  1  0
  6  7  2  0
  6  8  1  0
  5  9  2  0
  9 10  1  0
  9 11  1  0
 11 12  1  0
 12 13  1  0
 11 14  2  0
 14 15  1  0
 15 16  1  0
 14  3  1  0
M  END
