
     RDKit          3D

 12 12  0  0  0  0  0  0  0  0999 V2000
    5.4486   -2.8536   18.9070 N   0  0  0  0  0  0  0  0  0  0  0  0
    5.8527   -2.3132   20.1467 C   0  0  0  0  0  0  0  0  0  0  0  0
    5.8613   -0.9159   20.3385 C   0  0  0  0  0  0  0  0  0  0  0  0
    5.5564    0.2731   18.8821 Br  0  0  0  0  0  0  0  0  0  0  0  0
    6.1097   -0.3484   21.5918 C   0  0  0  0  0  0  0  0  0  0  0  0
    6.3216   -1.1767   22.6886 C   0  0  0  0  0  0  0  0  0  0  0  0
    6.6904   -0.3417   24.5562 I   0  0  0  0  0  0  0  0  0  0  0  0
    6.2822   -2.5613   22.5448 C   0  0  0  0  0  0  0  0  0  0  0  0
    6.0329   -3.1324   21.2841 C   0  0  0  0  0  0  0  0  0  0  0  0
    6.0122   -4.6130   21.1436 C   0  0  0  0  0  0  0  0  0  0  0  0
    5.7788   -5.2362   20.1228 O   0  0  0  0  0  0  0  0  0  0  0  0
    6.2863   -5.2509   22.2967 O   0  0  0  0  0  0  0  0  0  0  0  0
  1  2  1  0
  2  3  2  0
  3  4  1  0
  3  5  1  0
  5  6  2  0
  6  7  1  0
  6  8  1  0
  8  9  2  0
  9 10  1  0
 10 11  2  0
 10 12  1  0
  9  2  1  0
M  END
