
     RDKit          3D

 28 31  0  0  0  0  0  0  0  0999 V2000
   -1.9210    9.0783   25.9845 C   0  0  0  0  0  0  0  0  0  0  0  0
   -0.5410    8.9406   25.6727 O   0  0  0  0  0  0  0  0  0  0  0  0
    0.1736    8.0300   26.4068 C   0  0  0  0  0  0  0  0  0  0  0  0
   -0.2502    6.7315   26.6918 C   0  0  0  0  0  0  0  0  0  0  0  0
    0.5606    5.8722   27.4422 C   0  0  0  0  0  0  0  0  0  0  0  0
    1.8048    6.2951   27.9303 C   0  0  0  0  0  0  0  0  0  0  0  0
    2.6188    5.3462   28.6968 C   0  0  0  0  0  0  0  0  0  0  0  0
    2.2112    4.8398   29.8523 N   0  0  0  0  0  0  0  0  0  0  0  0
    3.2658    4.1499   30.3622 C   0  0  0  0  0  0  0  0  0  0  0  0
    4.3283    4.1868   29.4972 C   0  0  0  0  0  0  0  0  0  0  0  0
    3.9073    4.8901   28.3813 N   0  0  0  0  0  0  0  0  0  0  0  0
    4.6726    5.0412   27.1817 C   0  0  0  0  0  0  0  0  0  0  0  0
    6.0518    5.3008   27.2627 C   0  0  0  0  0  0  0  0  0  0  0  0
    6.8200    5.4650   26.1051 C   0  0  0  0  0  0  0  0  0  0  0  0
    6.2280    5.3566   24.8450 C   0  0  0  0  0  0  0  0  0  0  0  0
    4.8505    5.0959   24.7582 C   0  0  0  0  0  0  0  0  0  0  0  0
    4.0814    4.9227   25.9174 C   0  0  0  0  0  0  0  0  0  0  0  0
    4.1863    5.0174   23.4261 C   0  0  0  0  0  0  0  0  0  0  0  0
    2.9714    4.9324   23.3063 O   0  0  0  0  0  0  0  0  0  0  0  0
    5.0049    5.0608   22.3214 N   0  0  0  0  0  0  0  0  0  0  0  0
    6.4246    4.8172   22.4241 C   0  0  0  0  0  0  0  0  0  0  0  0
    7.0359    5.5809   23.5932 C   0  0  0  0  0  0  0  0  0  0  0  0
    2.1978    7.6248   27.7132 C   0  0  0  0  0  0  0  0  0  0  0  0
    3.3880    8.0630   28.2473 O   0  0  0  0  0  0  0  0  0  0  0  0
    3.1498    9.0029   29.2960 C   0  0  0  0  0  0  0  0  0  0  0  0
    1.4087    8.4670   26.9137 C   0  0  0  0  0  0  0  0  0  0  0  0
    1.8309    9.7473   26.6326 O   0  0  0  0  0  0  0  0  0  0  0  0
    1.9245    9.9103   25.2155 C   0  0  0  0  0  0  0  0  0  0  0  0
  1  2  1  0
  2  3  1  0
  3  4  2  0
  4  5  1  0
  5  6  2  0
  6  7  1  0
  7  8  2  0
  8  9  1  0
  9 10  2  0
 10 11  1  0
 11 12  1  0
 12 13  2  0
 13 14  1  0
 14 15  2  0
 15 16  1  0
 16 17  2  0
 16 18  1  0
 18 19  2  0
 18 20  1  0
 20 21  1  0
 21 22  1  0
  6 23  1  0
 23 24  1  0
 24 25  1  0
 23 26  2  0
 26 27  1  0
 27 28  1  0
 26  3  1  0
 11  7  1  0
 17 12  1  0
 22 15  1  0
M  END
