
     RDKit          3D

 25 27  0  0  0  0  0  0  0  0999 V2000
    5.7237    4.4298   21.6408 C   0  0  0  0  0  0  0  0  0  0  0  0
    6.9324    5.1742   21.7127 O   0  0  0  0  0  0  0  0  0  0  0  0
    7.7643    4.9285   22.7741 C   0  0  0  0  0  0  0  0  0  0  0  0
    8.7701    3.9645   22.7916 C   0  0  0  0  0  0  0  0  0  0  0  0
    9.5728    3.8205   23.9292 C   0  0  0  0  0  0  0  0  0  0  0  0
   10.6182    2.7750   23.9219 C   0  0  0  0  0  0  0  0  0  0  0  0
   11.7103    3.0778   23.4459 O   0  0  0  0  0  0  0  0  0  0  0  0
   10.3242    1.5113   24.4351 N   0  0  0  0  0  0  0  0  0  0  0  0
   11.3982    0.5172   24.4014 C   0  0  0  0  0  0  0  0  0  0  0  0
   10.9691   -0.9543   24.4447 C   0  0  0  0  0  0  0  0  0  0  0  0
    9.9195   -1.3207   23.3920 C   0  0  0  0  0  0  0  0  0  0  0  0
    8.5742   -0.7581   23.7175 C   0  0  0  0  0  0  0  0  0  0  0  0
    8.2330    0.3247   24.5135 C   0  0  0  0  0  0  0  0  0  0  0  0
    6.8244    0.3653   24.4623 C   0  0  0  0  0  0  0  0  0  0  0  0
    6.3132   -0.5826   23.6761 N   0  0  0  0  0  0  0  0  0  0  0  0
    7.3921   -1.2520   23.2298 N   0  0  0  0  0  0  0  0  0  0  0  0
    7.2086   -2.3704   22.3348 C   0  0  0  0  0  0  0  0  0  0  0  0
    9.1440    1.2326   25.2594 C   0  0  0  0  0  0  0  0  0  0  0  0
    9.3624    4.5995   25.0742 C   0  0  0  0  0  0  0  0  0  0  0  0
    8.3606    5.5684   25.0733 C   0  0  0  0  0  0  0  0  0  0  0  0
    8.0677    6.3952   26.1265 O   0  0  0  0  0  0  0  0  0  0  0  0
    6.9758    6.0355   26.9635 C   0  0  0  0  0  0  0  0  0  0  0  0
    7.5630    5.7187   23.9222 C   0  0  0  0  0  0  0  0  0  0  0  0
    6.6023    6.7075   23.8946 O   0  0  0  0  0  0  0  0  0  0  0  0
    7.1783    7.9279   23.4307 C   0  0  0  0  0  0  0  0  0  0  0  0
  1  2  1  0
  2  3  1  0
  3  4  2  0
  4  5  1  0
  5  6  1  0
  6  7  2  0
  6  8  1  0
  8  9  1  0
  9 10  1  0
 10 11  1  0
 11 12  1  0
 12 13  2  0
 13 14  1  0
 14 15  2  0
 15 16  1  0
 16 17  1  0
 13 18  1  0
  5 19  2  0
 19 20  1  0
 20 21  1  0
 21 22  1  0
 20 23  2  0
 23 24  1  0
 24 25  1  0
 23  3  1  0
 18  8  1  0
 16 12  1  0
M  END
