
     RDKit          3D

 19 21  0  0  0  0  0  0  0  0999 V2000
   10.4929   -0.8671   21.6840 O   0  0  0  0  0  0  0  0  0  0  0  0
   10.3749   -0.7437   22.8993 C   0  0  0  0  0  0  0  0  0  0  0  0
   11.3397   -1.4706   23.7535 C   0  0  0  0  0  0  0  0  0  0  0  0
   12.6123   -0.8987   23.9009 C   0  0  0  0  0  0  0  0  0  0  0  0
   13.5766   -1.5298   24.6863 C   0  0  0  0  0  0  0  0  0  0  0  0
   13.2698   -2.7242   25.3364 C   0  0  0  0  0  0  0  0  0  0  0  0
   11.9955   -3.2834   25.2131 C   0  0  0  0  0  0  0  0  0  0  0  0
   11.0223   -2.6559   24.4276 C   0  0  0  0  0  0  0  0  0  0  0  0
    9.2993   -3.4508   24.3717 Br  0  0  0  0  0  0  0  0  0  0  0  0
    9.3751    0.0222   23.5167 N   0  0  0  0  0  0  0  0  0  0  0  0
    8.4177    0.7434   22.6603 C   0  0  0  0  0  0  0  0  0  0  0  0
    8.9855    2.1285   22.3097 C   0  0  0  0  0  0  0  0  0  0  0  0
    9.3189    2.8751   23.4920 O   0  0  0  0  0  0  0  0  0  0  0  0
   10.2791    2.1696   24.3093 C   0  0  0  0  0  0  0  0  0  0  0  0
    9.7225    0.7897   24.7455 C   0  0  1  0  0  0  0  0  0  0  0  0
    8.4980    0.9523   25.6539 C   0  0  0  0  0  0  0  0  0  0  0  0
    9.0943    1.2283   27.0160 C   0  0  0  0  0  0  0  0  0  0  0  0
   10.3709    0.5872   27.0547 O   0  0  0  0  0  0  0  0  0  0  0  0
   10.6774    0.0989   25.7346 C   0  0  0  0  0  0  0  0  0  0  0  0
  1  2  2  0
  2  3  1  0
  3  4  2  0
  4  5  1  0
  5  6  2  0
  6  7  1  0
  7  8  2  0
  8  9  1  0
  2 10  1  0
 10 11  1  0
 11 12  1  0
 12 13  1  0
 13 14  1  0
 15 14  1  6
 15 16  1  0
 16 17  1  0
 17 18  1  0
 18 19  1  0
  8  3  1  0
 15 10  1  0
 19 15  1  0
M  END
