
     RDKit          3D

 24 26  0  0  0  0  0  0  0  0999 V2000
    3.3981    4.4598   21.9714 C   0  0  0  0  0  0  0  0  0  0  0  0
    3.7988    3.2123   22.7461 C   0  0  0  0  0  0  0  0  0  0  0  0
    5.2886    3.0002   22.7453 C   0  0  0  0  0  0  0  0  0  0  0  0
    6.1577    3.3594   23.7121 C   0  0  0  0  0  0  0  0  0  0  0  0
    5.7300    3.9966   25.0102 C   0  0  0  0  0  0  0  0  0  0  0  0
    7.5187    3.1640   23.6346 N   0  0  0  0  0  0  0  0  0  0  0  0
    8.0028    2.6455   22.5518 C   0  0  0  0  0  0  0  0  0  0  0  0
    9.5089    2.3957   22.3676 C   0  0  1  0  0  0  0  0  0  0  0  0
   10.4011    3.5561   22.8116 C   0  0  0  0  0  0  0  0  0  0  0  0
   10.6679    3.2550   24.2828 C   0  0  0  0  0  0  0  0  0  0  0  0
   10.7911    1.7397   24.3056 C   0  0  0  0  0  0  0  0  0  0  0  0
    9.9255    1.2818   23.2262 N   0  0  0  0  0  0  0  0  0  0  0  0
    9.7245   -0.0270   22.8365 C   0  0  0  0  0  0  0  0  0  0  0  0
    8.9593   -0.3387   21.9277 O   0  0  0  0  0  0  0  0  0  0  0  0
   10.4418   -1.0840   23.5646 C   0  0  0  0  0  0  0  0  0  0  0  0
   11.7915   -1.3130   23.2881 C   0  0  0  0  0  0  0  0  0  0  0  0
   12.4634   -2.3099   23.9858 C   0  0  0  0  0  0  0  0  0  0  0  0
   11.7579   -3.0342   24.9328 C   0  0  0  0  0  0  0  0  0  0  0  0
   10.4528   -2.8267   25.2232 N   0  0  0  0  0  0  0  0  0  0  0  0
    9.8046   -1.8415   24.5462 C   0  0  0  0  0  0  0  0  0  0  0  0
    8.3660   -1.6182   24.9082 C   0  0  0  0  0  0  0  0  0  0  0  0
    7.2163    2.2787   21.4959 N   0  0  0  0  0  0  0  0  0  0  0  0
    5.8597    2.3557   21.5333 C   0  0  0  0  0  0  0  0  0  0  0  0
    5.1543    1.9139   20.6330 O   0  0  0  0  0  0  0  0  0  0  0  0
  1  2  1  0
  2  3  1  0
  3  4  2  0
  4  5  1  0
  4  6  1  0
  6  7  2  0
  8  7  1  1
  8  9  1  0
  9 10  1  0
 10 11  1  0
 11 12  1  0
 12 13  1  0
 13 14  2  0
 13 15  1  0
 15 16  2  0
 16 17  1  0
 17 18  2  0
 18 19  1  0
 19 20  2  0
 20 21  1  0
  7 22  1  0
 22 23  1  0
 23 24  2  0
 23  3  1  0
 12  8  1  0
 20 15  1  0
M  END
