
     RDKit          3D

 32 35  0  0  0  0  0  0  0  0999 V2000
    5.4186   10.8885   30.7517 C   0  0  0  0  0  0  0  0  0  0  0  0
    6.2589   11.5361   29.8038 O   0  0  0  0  0  0  0  0  0  0  0  0
    6.1150   11.1354   28.5003 C   0  0  0  0  0  0  0  0  0  0  0  0
    6.7537   10.0256   27.9497 C   0  0  0  0  0  0  0  0  0  0  0  0
    6.5663    9.7215   26.5960 C   0  0  0  0  0  0  0  0  0  0  0  0
    7.2366    8.5525   25.9894 C   0  0  0  0  0  0  0  0  0  0  0  0
    6.9961    8.2934   24.8105 O   0  0  0  0  0  0  0  0  0  0  0  0
    8.1047    7.7633   26.7002 N   0  0  0  0  0  0  0  0  0  0  0  0
    8.7714    6.6676   26.2351 C   0  0  0  0  0  0  0  0  0  0  0  0
    8.2909    5.5340   25.8025 N   0  0  0  0  0  0  0  0  0  0  0  0
    9.3224    4.6889   25.4200 C   0  0  0  0  0  0  0  0  0  0  0  0
    9.0297    3.3604   24.8815 C   0  0  0  0  0  0  0  0  0  0  0  0
    9.7933    2.2633   25.3177 C   0  0  0  0  0  0  0  0  0  0  0  0
    9.5453    0.9737   24.8396 C   0  0  0  0  0  0  0  0  0  0  0  0
    8.5186    0.7609   23.9276 C   0  0  0  0  0  0  0  0  0  0  0  0
    7.7527    1.8401   23.4820 C   0  0  0  0  0  0  0  0  0  0  0  0
    8.0044    3.1336   23.9506 C   0  0  0  0  0  0  0  0  0  0  0  0
    6.7528    1.6353   22.5296 N   0  0  0  0  0  0  0  0  0  0  0  0
    6.4339    0.3784   22.0858 C   0  0  0  0  0  0  0  0  0  0  0  0
    5.6252    0.2192   21.1749 O   0  0  0  0  0  0  0  0  0  0  0  0
    7.0773   -0.7638   22.8912 C   0  0  1  0  0  0  0  0  0  0  0  0
    7.1952   -2.0168   22.0316 C   0  0  0  0  0  0  0  0  0  0  0  0
    8.3587   -0.5163   23.4646 O   0  0  0  0  0  0  0  0  0  0  0  0
   10.5859    5.2216   25.6029 C   0  0  0  0  0  0  0  0  0  0  0  0
   10.4685    6.8141   26.2429 S   0  0  0  0  0  0  0  0  0  0  0  0
    5.6937   10.4725   25.7983 C   0  0  0  0  0  0  0  0  0  0  0  0
    5.0297   11.5714   26.3424 C   0  0  0  0  0  0  0  0  0  0  0  0
    4.1673   12.3857   25.6549 O   0  0  0  0  0  0  0  0  0  0  0  0
    3.8785   12.0435   24.3062 C   0  0  0  0  0  0  0  0  0  0  0  0
    5.2373   11.8865   27.6983 C   0  0  0  0  0  0  0  0  0  0  0  0
    4.6332   13.0053   28.2303 O   0  0  0  0  0  0  0  0  0  0  0  0
    5.6208   13.8543   28.8126 C   0  0  0  0  0  0  0  0  0  0  0  0
  1  2  1  0
  2  3  1  0
  3  4  2  0
  4  5  1  0
  5  6  1  0
  6  7  2  0
  6  8  1  0
  8  9  1  0
  9 10  2  0
 10 11  1  0
 11 12  1  0
 12 13  2  0
 13 14  1  0
 14 15  2  0
 15 16  1  0
 16 17  2  0
 16 18  1  0
 18 19  1  0
 19 20  2  0
 19 21  1  0
 21 22  1  6
 21 23  1  0
 11 24  2  0
 24 25  1  0
  5 26  2  0
 26 27  1  0
 27 28  1  0
 28 29  1  0
 27 30  2  0
 30 31  1  0
 31 32  1  0
 30  3  1  0
 25  9  1  0
 17 12  1  0
 23 15  1  0
M  END
