
     RDKit          3D

 36 40  0  0  0  0  0  0  0  0999 V2000
    6.9885    0.0822   18.3273 O   0  0  0  0  0  0  0  0  0  0  0  0
    6.1576   -1.0404   18.6051 C   0  0  0  0  0  0  0  0  0  0  0  0
    6.3633   -1.5087   20.0403 C   0  0  0  0  0  0  0  0  0  0  0  0
    5.7653   -2.7843   20.2609 O   0  0  0  0  0  0  0  0  0  0  0  0
    6.1851   -3.5280   21.3286 C   0  0  0  0  0  0  0  0  0  0  0  0
    6.0765   -4.9094   21.1488 C   0  0  0  0  0  0  0  0  0  0  0  0
    6.4726   -5.7919   22.1527 C   0  0  0  0  0  0  0  0  0  0  0  0
    6.9906   -5.2956   23.3466 C   0  0  0  0  0  0  0  0  0  0  0  0
    7.1254   -3.9130   23.5425 C   0  0  0  0  0  0  0  0  0  0  0  0
    7.6851   -3.3679   24.8435 C   0  0  0  0  0  0  0  0  0  0  0  0
    9.1600   -3.3398   24.8794 N   0  0  0  0  0  0  0  0  0  0  0  0
    9.6574   -4.4879   25.6698 C   0  0  0  0  0  0  0  0  0  0  0  0
   11.1817   -4.6685   25.6226 C   0  0  0  0  0  0  0  0  0  0  0  0
   11.8719   -3.6780   26.3968 O   0  0  0  0  0  0  0  0  0  0  0  0
   12.1275   -2.5763   25.6240 C   0  0  0  0  0  0  0  0  0  0  0  0
   13.4630   -2.2591   25.3819 C   0  0  0  0  0  0  0  0  0  0  0  0
   13.7812   -1.1661   24.5757 C   0  0  0  0  0  0  0  0  0  0  0  0
   12.7683   -0.3650   24.0280 C   0  0  0  0  0  0  0  0  0  0  0  0
   13.0952    0.7930   23.1045 C   0  0  0  0  0  0  0  0  0  0  0  0
   12.7403    2.1165   23.6422 N   0  0  0  0  0  0  0  0  0  0  0  0
   11.4493    2.5998   23.1071 C   0  0  0  0  0  0  0  0  0  0  0  0
   11.1067    4.0238   23.6094 C   0  0  0  0  0  0  0  0  0  0  0  0
   12.1624    5.0049   23.2674 N   0  0  0  0  0  0  0  0  0  0  0  0
   11.8561    6.3343   23.8407 C   0  0  0  0  0  0  0  0  0  0  0  0
   10.4065    6.7675   23.6975 C   0  0  0  0  0  0  0  0  0  0  0  0
    9.6750    7.1656   24.8164 C   0  0  0  0  0  0  0  0  0  0  0  0
    8.3472    7.5483   24.6512 C   0  0  0  0  0  0  0  0  0  0  0  0
    7.7844    7.5219   23.3813 C   0  0  0  0  0  0  0  0  0  0  0  0
    8.5771    7.1140   22.3228 C   0  0  0  0  0  0  0  0  0  0  0  0
    9.8678    6.7370   22.4508 N   0  0  0  0  0  0  0  0  0  0  0  0
   13.4492    4.5182   23.8065 C   0  0  0  0  0  0  0  0  0  0  0  0
   13.7923    3.0973   23.3069 C   0  0  0  0  0  0  0  0  0  0  0  0
   11.4282   -0.6902   24.3003 C   0  0  0  0  0  0  0  0  0  0  0  0
   11.0926   -1.7872   25.1136 C   0  0  0  0  0  0  0  0  0  0  0  0
    9.6482   -2.0711   25.4524 C   0  0  0  0  0  0  0  0  0  0  0  0
    6.7065   -3.0350   22.5271 C   0  0  0  0  0  0  0  0  0  0  0  0
  1  2  1  0
  2  3  1  0
  3  4  1  0
  4  5  1  0
  5  6  2  0
  6  7  1  0
  7  8  2  0
  8  9  1  0
  9 10  1  0
 10 11  1  0
 11 12  1  0
 12 13  1  0
 13 14  1  0
 14 15  1  0
 15 16  2  0
 16 17  1  0
 17 18  2  0
 18 19  1  0
 19 20  1  0
 20 21  1  0
 21 22  1  0
 22 23  1  0
 23 24  1  0
 24 25  1  0
 25 26  2  0
 26 27  1  0
 27 28  2  0
 28 29  1  0
 29 30  2  0
 23 31  1  0
 31 32  1  0
 18 33  1  0
 33 34  2  0
 34 35  1  0
  9 36  2  0
 36  5  1  0
 35 11  1  0
 34 15  1  0
 32 20  1  0
 30 25  1  0
M  END
