
     RDKit          3D

 36 40  0  0  0  0  0  0  0  0999 V2000
   10.5057    0.2049   26.7529 C   0  0  0  0  0  0  0  0  0  0  0  0
   10.4016    0.5258   25.3734 O   0  0  0  0  0  0  0  0  0  0  0  0
    9.2504    1.1352   24.9453 C   0  0  0  0  0  0  0  0  0  0  0  0
    8.8060    2.3919   25.3668 C   0  0  0  0  0  0  0  0  0  0  0  0
    7.6115    2.9405   24.8669 C   0  0  0  0  0  0  0  0  0  0  0  0
    7.1057    4.3012   25.3175 C   0  0  2  0  0  0  0  0  0  0  0  0
    5.7652    4.6809   24.6735 C   0  0  0  0  0  0  0  0  0  0  0  0
    5.2884    6.0386   25.1447 C   0  0  0  0  0  0  0  0  0  0  0  0
    4.1045    6.3593   25.1169 O   0  0  0  0  0  0  0  0  0  0  0  0
    6.2994    7.0096   25.5902 C   0  0  0  0  0  0  0  0  0  0  0  0
    5.9602    8.2504   26.0655 C   0  0  0  0  0  0  0  0  0  0  0  0
    6.8711    9.1510   26.4939 N   0  0  0  0  0  0  0  0  0  0  0  0
    8.1716    8.8091   26.4451 C   0  0  0  0  0  0  0  0  0  0  0  0
    9.1262    9.7026   26.9235 N   0  0  0  0  0  0  0  0  0  0  0  0
   10.5124    9.2322   26.8077 C   0  0  0  0  0  0  0  0  0  0  0  0
   11.5124   10.3123   27.2850 C   0  0  0  0  0  0  0  0  0  0  0  0
   11.2309   10.8977   28.6156 N   0  0  0  0  0  0  0  0  0  0  0  0
   11.4831    9.9194   29.6870 C   0  0  0  0  0  0  0  0  0  0  0  0
   12.9506    9.5915   29.8712 C   0  0  0  0  0  0  0  0  0  0  0  0
   13.9409   10.4860   29.4383 C   0  0  0  0  0  0  0  0  0  0  0  0
   15.2931   10.1794   29.5963 C   0  0  0  0  0  0  0  0  0  0  0  0
   15.6702    8.9742   30.1850 C   0  0  0  0  0  0  0  0  0  0  0  0
   14.6965    8.0750   30.6165 C   0  0  0  0  0  0  0  0  0  0  0  0
   13.3431    8.3802   30.4595 C   0  0  0  0  0  0  0  0  0  0  0  0
    9.8339   11.3911   28.6074 C   0  0  0  0  0  0  0  0  0  0  0  0
    8.7657   10.3551   28.1896 C   0  0  0  0  0  0  0  0  0  0  0  0
    8.5781    7.6123   25.9778 N   0  0  0  0  0  0  0  0  0  0  0  0
    7.6456    6.7240   25.5668 C   0  0  0  0  0  0  0  0  0  0  0  0
    8.1458    5.4002   25.0570 C   0  0  0  0  0  0  0  0  0  0  0  0
    6.8526    2.1973   23.9444 C   0  0  0  0  0  0  0  0  0  0  0  0
    7.2732    0.9355   23.5168 C   0  0  0  0  0  0  0  0  0  0  0  0
    6.5939    0.1480   22.6235 O   0  0  0  0  0  0  0  0  0  0  0  0
    6.3024    0.7108   21.3516 C   0  0  0  0  0  0  0  0  0  0  0  0
    8.4864    0.4253   24.0045 C   0  0  0  0  0  0  0  0  0  0  0  0
    8.8954   -0.8322   23.6159 O   0  0  0  0  0  0  0  0  0  0  0  0
    9.7909   -0.7268   22.5107 C   0  0  0  0  0  0  0  0  0  0  0  0
  1  2  1  0
  2  3  1  0
  3  4  2  0
  4  5  1  0
  6  5  1  6
  6  7  1  0
  7  8  1  0
  8  9  2  0
  8 10  1  0
 10 11  2  0
 11 12  1  0
 12 13  2  0
 13 14  1  0
 14 15  1  0
 15 16  1  0
 16 17  1  0
 17 18  1  0
 18 19  1  0
 19 20  2  0
 20 21  1  0
 21 22  2  0
 22 23  1  0
 23 24  2  0
 17 25  1  0
 25 26  1  0
 13 27  1  0
 27 28  2  0
 28 29  1  0
  5 30  2  0
 30 31  1  0
 31 32  1  0
 32 33  1  0
 31 34  2  0
 34 35  1  0
 35 36  1  0
 34  3  1  0
 29  6  1  0
 28 10  1  0
 26 14  1  0
 24 19  1  0
M  END
