
     RDKit          3D

 30 33  0  0  0  0  0  0  0  0999 V2000
    3.1325   -2.4756   27.9963 C   0  0  0  0  0  0  0  0  0  0  0  0
    3.4091   -3.6555   27.2547 O   0  0  0  0  0  0  0  0  0  0  0  0
    4.6334   -3.7475   26.6470 C   0  0  0  0  0  0  0  0  0  0  0  0
    4.8353   -3.9224   25.2776 C   0  0  0  0  0  0  0  0  0  0  0  0
    6.1341   -3.9982   24.7578 C   0  0  0  0  0  0  0  0  0  0  0  0
    7.2610   -3.9171   25.5941 C   0  0  0  0  0  0  0  0  0  0  0  0
    8.5926   -4.0269   25.0099 C   0  0  0  0  0  0  0  0  0  0  0  0
    8.9592   -5.0094   24.1663 N   0  0  0  0  0  0  0  0  0  0  0  0
   10.2939   -4.7228   23.8807 O   0  0  0  0  0  0  0  0  0  0  0  0
   10.6109   -3.6067   24.5967 C   0  0  0  0  0  0  0  0  0  0  0  0
   11.9976   -3.0735   24.4444 C   0  0  0  0  0  0  0  0  0  0  0  0
   12.7642   -2.8396   25.6984 N   0  0  0  0  0  0  0  0  0  0  0  0
   13.9503   -3.6964   25.7609 C   0  0  0  0  0  0  0  0  0  0  0  0
   13.1506   -1.4226   25.8631 C   0  0  0  0  0  0  0  0  0  0  0  0
   12.3284   -0.5092   25.0079 C   0  0  0  0  0  0  0  0  0  0  0  0
   11.0145   -0.4081   24.9715 N   0  0  0  0  0  0  0  0  0  0  0  0
   10.7452    0.5683   24.0444 C   0  0  0  0  0  0  0  0  0  0  0  0
    9.5133    1.0837   23.6171 C   0  0  0  0  0  0  0  0  0  0  0  0
    9.5084    2.0950   22.6478 C   0  0  0  0  0  0  0  0  0  0  0  0
   10.7054    2.5832   22.1168 C   0  0  0  0  0  0  0  0  0  0  0  0
   11.9443    2.0821   22.5325 C   0  0  0  0  0  0  0  0  0  0  0  0
   11.9191    1.0730   23.4972 C   0  0  0  0  0  0  0  0  0  0  0  0
   12.9112    0.3680   24.1249 N   0  0  0  0  0  0  0  0  0  0  0  0
    9.6121   -3.1579   25.3181 N   0  0  0  0  0  0  0  0  0  0  0  0
    7.0593   -3.7500   26.9731 C   0  0  0  0  0  0  0  0  0  0  0  0
    8.1357   -3.5845   27.8144 O   0  0  0  0  0  0  0  0  0  0  0  0
    9.0207   -4.7051   27.7265 C   0  0  0  0  0  0  0  0  0  0  0  0
    5.7545   -3.6349   27.4857 C   0  0  0  0  0  0  0  0  0  0  0  0
    5.5659   -3.4624   28.8386 O   0  0  0  0  0  0  0  0  0  0  0  0
    5.2182   -4.7089   29.4395 C   0  0  0  0  0  0  0  0  0  0  0  0
  1  2  1  0
  2  3  1  0
  3  4  2  0
  4  5  1  0
  5  6  2  0
  6  7  1  0
  7  8  2  0
  8  9  1  0
  9 10  1  0
 10 11  1  0
 11 12  1  0
 12 13  1  0
 12 14  1  0
 14 15  1  0
 15 16  2  0
 16 17  1  0
 17 18  2  0
 18 19  1  0
 19 20  2  0
 20 21  1  0
 21 22  2  0
 22 23  1  0
 10 24  2  0
  6 25  1  0
 25 26  1  0
 26 27  1  0
 25 28  2  0
 28 29  1  0
 29 30  1  0
 28  3  1  0
 24  7  1  0
 23 15  1  0
 22 17  1  0
M  END
