
     RDKit          3D

 34 36  0  0  0  0  0  0  0  0999 V2000
    5.0709    1.0112   31.0195 C   0  0  0  0  0  0  0  0  0  0  0  0
    5.3375    0.7576   29.6443 O   0  0  0  0  0  0  0  0  0  0  0  0
    5.2261   -0.5369   29.2080 C   0  0  0  0  0  0  0  0  0  0  0  0
    4.1032   -1.3452   29.3835 C   0  0  0  0  0  0  0  0  0  0  0  0
    4.0976   -2.6618   28.9097 C   0  0  0  0  0  0  0  0  0  0  0  0
    5.1999   -3.1924   28.2224 C   0  0  0  0  0  0  0  0  0  0  0  0
    5.1464   -4.6235   27.7236 C   0  0  0  0  0  0  0  0  0  0  0  0
    3.7789   -5.1763   27.7102 N   0  0  0  0  0  0  0  0  0  0  0  0
    3.7574   -6.6228   27.4095 C   0  0  0  0  0  0  0  0  0  0  0  0
    4.1497   -6.9996   25.9681 C   0  0  0  0  0  0  0  0  0  0  0  0
    3.4538   -6.2049   24.9476 N   0  0  0  0  0  0  0  0  0  0  0  0
    3.4137   -6.5730   23.5999 C   0  0  0  0  0  0  0  0  0  0  0  0
    3.9829   -7.5867   23.1886 O   0  0  0  0  0  0  0  0  0  0  0  0
    2.6526   -5.6487   22.6553 C   0  0  0  0  0  0  0  0  0  0  0  0
    1.1847   -6.0362   22.5373 C   0  0  0  0  0  0  0  0  0  0  0  0
    0.4958   -5.9844   23.8128 N   0  0  0  0  0  0  0  0  0  0  0  0
    0.4233   -7.0725   24.6583 C   0  0  0  0  0  0  0  0  0  0  0  0
    0.9222   -8.1637   24.3878 O   0  0  0  0  0  0  0  0  0  0  0  0
   -0.3105   -6.9020   25.9420 C   0  0  0  0  0  0  0  0  0  0  0  0
   -0.3919   -7.9997   26.8131 C   0  0  0  0  0  0  0  0  0  0  0  0
   -1.0702   -7.8873   28.0292 C   0  0  0  0  0  0  0  0  0  0  0  0
   -1.6580   -6.6763   28.3763 C   0  0  0  0  0  0  0  0  0  0  0  0
   -2.2973   -6.5628   29.5454 F   0  0  0  0  0  0  0  0  0  0  0  0
   -1.5817   -5.5766   27.5317 C   0  0  0  0  0  0  0  0  0  0  0  0
   -0.9117   -5.6973   26.3182 C   0  0  0  0  0  0  0  0  0  0  0  0
   -0.8471   -4.6152   25.5255 F   0  0  0  0  0  0  0  0  0  0  0  0
    3.2995   -4.7782   25.2420 C   0  0  0  0  0  0  0  0  0  0  0  0
    2.9355   -4.4878   26.7087 C   0  0  0  0  0  0  0  0  0  0  0  0
    6.3179   -2.3714   28.0176 C   0  0  0  0  0  0  0  0  0  0  0  0
    7.3934   -2.9109   27.3547 O   0  0  0  0  0  0  0  0  0  0  0  0
    7.4818   -2.4441   26.0077 C   0  0  0  0  0  0  0  0  0  0  0  0
    6.3453   -1.0696   28.5482 C   0  0  0  0  0  0  0  0  0  0  0  0
    7.4706   -0.2935   28.3901 O   0  0  0  0  0  0  0  0  0  0  0  0
    7.2207    0.7136   27.4103 C   0  0  0  0  0  0  0  0  0  0  0  0
  1  2  1  0
  2  3  1  0
  3  4  2  0
  4  5  1  0
  5  6  2  0
  6  7  1  0
  7  8  1  0
  8  9  1  0
  9 10  1  0
 10 11  1  0
 11 12  1  0
 12 13  2  0
 12 14  1  0
 14 15  1  0
 15 16  1  0
 16 17  1  0
 17 18  2  0
 17 19  1  0
 19 20  2  0
 20 21  1  0
 21 22  2  0
 22 23  1  0
 22 24  1  0
 24 25  2  0
 25 26  1  0
 11 27  1  0
 27 28  1  0
  6 29  1  0
 29 30  1  0
 30 31  1  0
 29 32  2  0
 32 33  1  0
 33 34  1  0
 32  3  1  0
 28  8  1  0
 25 19  1  0
M  END
