
     RDKit          3D

 33 32  0  0  0  0  0  0  0  0999 V2000
    4.5194    9.7229   21.1609 C   0  0  0  0  0  0  0  0  0  0  0  0
    5.3214    8.4628   20.8763 C   0  0  0  0  0  0  0  0  0  0  0  0
    6.2217    8.0347   22.0385 C   0  0  0  0  0  0  0  0  0  0  0  0
    7.0361    6.7737   21.7375 C   0  0  0  0  0  0  0  0  0  0  0  0
    7.9573    6.3511   22.8880 C   0  0  0  0  0  0  0  0  0  0  0  0
    9.0528    7.3757   23.2040 C   0  0  0  0  0  0  0  0  0  0  0  0
    9.9052    6.9793   24.4168 C   0  0  0  0  0  0  0  0  0  0  0  0
   10.7413    5.7069   24.2311 C   0  0  0  0  0  0  0  0  0  0  0  0
   11.8358    5.8244   23.1700 C   0  0  0  0  0  0  0  0  0  0  0  0
   12.9219    4.7493   23.2831 C   0  0  0  0  0  0  0  0  0  0  0  0
   12.4377    3.3389   22.9309 C   0  0  0  0  0  0  0  0  0  0  0  0
   13.4648    2.2765   23.3176 C   0  0  0  0  0  0  0  0  0  0  0  0
   13.0176    1.0075   22.8456 O   0  0  0  0  0  0  0  0  0  0  0  0
   13.7466   -0.0977   23.3818 C   0  0  0  0  0  0  0  0  0  0  0  0
   13.4620   -1.4169   22.6553 C   0  0  0  0  0  0  0  0  0  0  0  0
   12.0661   -1.6932   22.5253 O   0  0  0  0  0  0  0  0  0  0  0  0
   11.3927   -2.0065   23.7419 C   0  0  0  0  0  0  0  0  0  0  0  0
    9.9591   -2.4826   23.5093 C   0  0  0  0  0  0  0  0  0  0  0  0
    9.3267   -1.6076   22.5746 O   0  0  0  0  0  0  0  0  0  0  0  0
    7.9512   -1.9249   22.3893 C   0  0  0  0  0  0  0  0  0  0  0  0
    7.4426   -1.1869   21.1553 C   0  0  0  0  0  0  0  0  0  0  0  0
    5.9198   -1.2737   20.9282 C   0  0  2  0  0  0  0  0  0  0  0  0
    5.5531   -2.7209   20.7038 C   0  0  0  0  0  0  0  0  0  0  0  0
    5.4575   -3.2690   19.6194 O   0  0  0  0  0  0  0  0  0  0  0  0
    5.2659   -3.3883   21.8314 O   0  0  0  0  0  0  0  0  0  0  0  0
    5.3186   -0.3326   19.8652 C   0  0  1  0  0  0  0  0  0  0  0  0
    4.9128    1.0210   20.3764 C   0  0  0  0  0  0  0  0  0  0  0  0
    5.5829    1.7402   21.1049 O   0  0  0  0  0  0  0  0  0  0  0  0
    3.6427    1.3999   20.1166 O   0  0  0  0  0  0  0  0  0  0  0  0
    6.4276   -0.1884   18.4661 S   0  0  0  0  0  0  0  0  0  0  0  0
    7.4847    0.7608   18.7362 O   0  0  0  0  0  0  0  0  0  0  0  0
    6.7106   -1.5111   17.9558 O   0  0  0  0  0  0  0  0  0  0  0  0
    5.4209    0.5223   17.4166 O   0  0  0  0  0  0  0  0  0  0  0  0
  1  2  1  0
  2  3  1  0
  3  4  1  0
  4  5  1  0
  5  6  1  0
  6  7  1  0
  7  8  1  0
  8  9  1  0
  9 10  1  0
 10 11  1  0
 11 12  1  0
 12 13  1  0
 13 14  1  0
 14 15  1  0
 15 16  1  0
 16 17  1  0
 17 18  1  0
 18 19  1  0
 19 20  1  0
 20 21  1  0
 22 21  1  6
 22 23  1  0
 23 24  2  0
 23 25  1  0
 22 26  1  0
 26 27  1  1
 27 28  2  0
 27 29  1  0
 26 30  1  0
 30 31  2  0
 30 32  2  0
 30 33  1  0
M  END
