
     RDKit          3D

 33 32  0  0  0  0  0  0  0  0999 V2000
    5.8725    8.4416   20.8686 C   0  0  0  0  0  0  0  0  0  0  0  0
    6.1039    7.4189   21.9704 C   0  0  0  0  0  0  0  0  0  0  0  0
    7.5598    7.3414   22.4423 C   0  0  0  0  0  0  0  0  0  0  0  0
    7.8174    6.3219   23.5582 C   0  0  0  0  0  0  0  0  0  0  0  0
    9.2459    6.2523   24.1015 C   0  0  0  0  0  0  0  0  0  0  0  0
   10.3007    5.7161   23.1285 C   0  0  0  0  0  0  0  0  0  0  0  0
   11.7198    5.7185   23.7039 C   0  0  0  0  0  0  0  0  0  0  0  0
   12.7392    5.2537   22.6589 C   0  0  0  0  0  0  0  0  0  0  0  0
   12.6673    3.7396   22.4397 C   0  0  0  0  0  0  0  0  0  0  0  0
   13.0352    2.9320   23.6901 C   0  0  0  0  0  0  0  0  0  0  0  0
   13.6583    1.5703   23.3651 C   0  0  0  0  0  0  0  0  0  0  0  0
   13.6232    0.6022   24.5504 C   0  0  0  0  0  0  0  0  0  0  0  0
   14.2253   -0.6553   24.2570 O   0  0  0  0  0  0  0  0  0  0  0  0
   14.2038   -1.6325   25.2962 C   0  0  0  0  0  0  0  0  0  0  0  0
   12.8456   -2.3171   25.5042 C   0  0  0  0  0  0  0  0  0  0  0  0
   12.2277   -2.7651   24.2943 O   0  0  0  0  0  0  0  0  0  0  0  0
   10.9573   -2.1579   24.0424 C   0  0  0  0  0  0  0  0  0  0  0  0
   10.7849   -1.9323   22.5368 C   0  0  0  0  0  0  0  0  0  0  0  0
   10.1319   -0.6893   22.2419 O   0  0  0  0  0  0  0  0  0  0  0  0
    8.8735   -0.8540   21.5955 C   0  0  0  0  0  0  0  0  0  0  0  0
    8.2099    0.5145   21.4442 C   0  0  0  0  0  0  0  0  0  0  0  0
    6.6786    0.4220   21.2988 C   0  0  1  0  0  0  0  0  0  0  0  0
    6.0302    1.0177   22.5267 C   0  0  0  0  0  0  0  0  0  0  0  0
    6.0366    2.1898   22.8576 O   0  0  0  0  0  0  0  0  0  0  0  0
    5.4067    0.0913   23.2745 O   0  0  0  0  0  0  0  0  0  0  0  0
    6.0659    1.0342   20.0247 C   0  0  2  0  0  0  0  0  0  0  0  0
    4.6322    1.4837   20.1157 C   0  0  0  0  0  0  0  0  0  0  0  0
    3.6358    0.7783   20.0427 O   0  0  0  0  0  0  0  0  0  0  0  0
    4.4882    2.8215   20.1774 O   0  0  0  0  0  0  0  0  0  0  0  0
    6.1719   -0.1846   18.7018 S   0  0  0  0  0  0  0  0  0  0  0  0
    5.3216   -1.3165   18.9937 O   0  0  0  0  0  0  0  0  0  0  0  0
    7.5648   -0.3619   18.3470 O   0  0  0  0  0  0  0  0  0  0  0  0
    5.4701    0.6425   17.5002 O   0  0  0  0  0  0  0  0  0  0  0  0
  1  2  1  0
  2  3  1  0
  3  4  1  0
  4  5  1  0
  5  6  1  0
  6  7  1  0
  7  8  1  0
  8  9  1  0
  9 10  1  0
 10 11  1  0
 11 12  1  0
 12 13  1  0
 13 14  1  0
 14 15  1  0
 15 16  1  0
 16 17  1  0
 17 18  1  0
 18 19  1  0
 19 20  1  0
 20 21  1  0
 22 21  1  1
 22 23  1  0
 23 24  2  0
 23 25  1  0
 22 26  1  0
 26 27  1  1
 27 28  2  0
 27 29  1  0
 26 30  1  0
 30 31  2  0
 30 32  2  0
 30 33  1  0
M  END
