
     RDKit          3D

 33 32  0  0  0  0  0  0  0  0999 V2000
    5.1819    6.9049   22.5758 C   0  0  0  0  0  0  0  0  0  0  0  0
    6.2899    6.6084   21.5764 C   0  0  0  0  0  0  0  0  0  0  0  0
    7.6638    6.9517   22.1533 C   0  0  0  0  0  0  0  0  0  0  0  0
    8.0191    6.1457   23.4068 C   0  0  0  0  0  0  0  0  0  0  0  0
    9.4105    6.4012   23.9933 C   0  0  0  0  0  0  0  0  0  0  0  0
   10.5897    6.0015   23.1021 C   0  0  0  0  0  0  0  0  0  0  0  0
   11.9832    6.2160   23.7011 C   0  0  0  0  0  0  0  0  0  0  0  0
   13.1228    5.8292   22.7543 C   0  0  0  0  0  0  0  0  0  0  0  0
   13.0882    4.3313   22.4365 C   0  0  0  0  0  0  0  0  0  0  0  0
   13.0894    3.4405   23.6830 C   0  0  0  0  0  0  0  0  0  0  0  0
   13.4591    1.9838   23.3885 C   0  0  0  0  0  0  0  0  0  0  0  0
   13.2606    1.0701   24.5991 C   0  0  0  0  0  0  0  0  0  0  0  0
   13.5928   -0.2944   24.3583 O   0  0  0  0  0  0  0  0  0  0  0  0
   13.7259   -1.1272   25.5130 C   0  0  0  0  0  0  0  0  0  0  0  0
   13.7698   -2.6282   25.2040 C   0  0  0  0  0  0  0  0  0  0  0  0
   12.5702   -3.1236   24.5999 O   0  0  0  0  0  0  0  0  0  0  0  0
   11.5287   -3.4138   25.5401 C   0  0  0  0  0  0  0  0  0  0  0  0
   10.1763   -3.4321   24.8202 C   0  0  0  0  0  0  0  0  0  0  0  0
    9.7233   -2.1237   24.4418 O   0  0  0  0  0  0  0  0  0  0  0  0
    9.0519   -2.1033   23.1846 C   0  0  0  0  0  0  0  0  0  0  0  0
    7.6604   -1.5007   23.3963 C   0  0  0  0  0  0  0  0  0  0  0  0
    7.0454   -0.9332   22.1016 C   0  0  1  0  0  0  0  0  0  0  0  0
    7.6799    0.3896   21.7074 C   0  0  0  0  0  0  0  0  0  0  0  0
    8.7588    0.4428   21.1299 O   0  0  0  0  0  0  0  0  0  0  0  0
    7.0017    1.5066   22.0205 O   0  0  0  0  0  0  0  0  0  0  0  0
    6.9289   -1.9331   20.9424 C   0  0  1  0  0  0  0  0  0  0  0  0
    6.3678   -3.2452   21.3949 C   0  0  0  0  0  0  0  0  0  0  0  0
    7.0331   -4.2459   21.6143 O   0  0  0  0  0  0  0  0  0  0  0  0
    5.0483   -3.2466   21.6301 O   0  0  0  0  0  0  0  0  0  0  0  0
    5.9870   -1.3759   19.5465 S   0  0  0  0  0  0  0  0  0  0  0  0
    5.7320   -2.4497   18.6150 O   0  0  0  0  0  0  0  0  0  0  0  0
    4.9624   -0.4466   19.9754 O   0  0  0  0  0  0  0  0  0  0  0  0
    7.1333   -0.4926   18.8312 O   0  0  0  0  0  0  0  0  0  0  0  0
  1  2  1  0
  2  3  1  0
  3  4  1  0
  4  5  1  0
  5  6  1  0
  6  7  1  0
  7  8  1  0
  8  9  1  0
  9 10  1  0
 10 11  1  0
 11 12  1  0
 12 13  1  0
 13 14  1  0
 14 15  1  0
 15 16  1  0
 16 17  1  0
 17 18  1  0
 18 19  1  0
 19 20  1  0
 20 21  1  0
 22 21  1  1
 22 23  1  0
 23 24  2  0
 23 25  1  0
 22 26  1  0
 26 27  1  1
 27 28  2  0
 27 29  1  0
 26 30  1  0
 30 31  2  0
 30 32  2  0
 30 33  1  0
M  END
