
     RDKit          3D

 16 17  0  0  0  0  0  0  0  0999 V2000
   15.2452   -3.5681   26.5604 O   0  0  0  0  0  0  0  0  0  0  0  0
   14.6385   -2.7359   25.9079 C   0  0  0  0  0  0  0  0  0  0  0  0
   13.8285   -1.7709   26.4074 N   0  0  0  0  0  0  0  0  0  0  0  0
   13.3104   -0.8494   25.5445 C   0  0  0  0  0  0  0  0  0  0  0  0
   12.6800    0.1304   25.9064 O   0  0  0  0  0  0  0  0  0  0  0  0
   13.6792   -1.2110   24.1450 C   0  0  0  0  0  0  0  0  0  0  0  0
   13.3048   -0.6025   23.0122 C   0  0  0  0  0  0  0  0  0  0  0  0
   12.4320    0.5731   22.9424 C   0  0  0  0  0  0  0  0  0  0  0  0
   12.9539    1.8295   23.2731 C   0  0  0  0  0  0  0  0  0  0  0  0
   12.1349    2.9588   23.2169 C   0  0  0  0  0  0  0  0  0  0  0  0
   12.9130    4.8220   23.7147 I   0  0  0  0  0  0  0  0  0  0  0  0
   10.7987    2.8488   22.8298 C   0  0  0  0  0  0  0  0  0  0  0  0
   10.2731    1.5994   22.4948 C   0  0  0  0  0  0  0  0  0  0  0  0
   11.0895    0.4701   22.5512 C   0  0  0  0  0  0  0  0  0  0  0  0
   10.5838   -0.7578   22.2182 O   0  0  0  0  0  0  0  0  0  0  0  0
   14.7154   -2.6008   24.1651 S   0  0  0  0  0  0  0  0  0  0  0  0
  1  2  2  0
  2  3  1  0
  3  4  1  0
  4  5  2  0
  4  6  1  0
  6  7  2  0
  7  8  1  0
  8  9  2  0
  9 10  1  0
 10 11  1  0
 10 12  2  0
 12 13  1  0
 13 14  2  0
 14 15  1  0
  6 16  1  0
 16  2  1  0
 14  8  1  0
M  END
