
     RDKit          3D

 24 26  0  0  0  0  0  0  0  0999 V2000
    5.3760    0.7254   19.0934 C   0  0  0  0  0  0  0  0  0  0  0  0
    6.6943   -0.4477   19.4867 S   0  0  0  0  0  0  0  0  0  0  0  0
    7.5880    0.4767   20.7136 C   0  0  0  0  0  0  0  0  0  0  0  0
    7.1619    1.7078   21.0466 N   0  0  0  0  0  0  0  0  0  0  0  0
    7.8779    2.3558   21.9868 C   0  0  0  0  0  0  0  0  0  0  0  0
    8.9968    1.8334   22.5990 C   0  0  0  0  0  0  0  0  0  0  0  0
    9.7502    2.5678   23.6718 C   0  0  0  0  0  0  0  0  0  0  0  0
   10.5457    3.7096   23.1702 N   0  0  0  0  0  0  0  0  0  0  0  0
   10.0275    4.9652   23.7623 C   0  0  0  0  0  0  0  0  0  0  0  0
   10.7403    6.1977   23.2188 C   0  0  0  0  0  0  0  0  0  0  0  0
   12.2295    6.1083   23.4840 C   0  0  0  0  0  0  0  0  0  0  0  0
   12.7787    4.8002   22.9350 C   0  0  0  0  0  0  0  0  0  0  0  0
   12.0096    3.5600   23.4525 C   0  0  2  0  0  0  0  0  0  0  0  0
   12.6065    2.2773   22.8059 C   0  0  0  0  0  0  0  0  0  0  0  0
   13.5968    1.4853   23.6792 C   0  0  0  0  0  0  0  0  0  0  0  0
   13.1576    0.1175   23.9923 N   0  0  0  0  0  0  0  0  0  0  0  0
   14.1037   -0.9059   23.5045 C   0  0  0  0  0  0  0  0  0  0  0  0
   13.6930   -2.3414   23.9156 C   0  0  0  0  0  0  0  0  0  0  0  0
   13.4606   -2.5375   25.3592 N   0  0  0  0  0  0  0  0  0  0  0  0
   14.7136   -2.5631   26.1098 C   0  0  0  0  0  0  0  0  0  0  0  0
   12.5548   -1.4784   25.8453 C   0  0  0  0  0  0  0  0  0  0  0  0
   12.9618   -0.0395   25.4488 C   0  0  0  0  0  0  0  0  0  0  0  0
    9.3377    0.5624   22.1858 C   0  0  0  0  0  0  0  0  0  0  0  0
    8.6563   -0.1322   21.2533 N   0  0  0  0  0  0  0  0  0  0  0  0
  1  2  1  0
  2  3  1  0
  3  4  2  0
  4  5  1  0
  5  6  2  0
  6  7  1  0
  7  8  1  0
  8  9  1  0
  9 10  1  0
 10 11  1  0
 11 12  1  0
 12 13  1  0
 13 14  1  6
 14 15  1  0
 15 16  1  0
 16 17  1  0
 17 18  1  0
 18 19  1  0
 19 20  1  0
 19 21  1  0
 21 22  1  0
  6 23  1  0
 23 24  2  0
 24  3  1  0
 13  8  1  0
 22 16  1  0
M  END
