
     RDKit          3D

 26 29  0  0  0  0  0  0  0  0999 V2000
   10.4196    1.6431   25.4078 C   0  0  0  0  0  0  0  0  0  0  0  0
    9.1149    1.2316   25.7906 O   0  0  0  0  0  0  0  0  0  0  0  0
    8.4953    0.2748   25.0344 C   0  0  0  0  0  0  0  0  0  0  0  0
    9.0508   -0.3343   23.9033 C   0  0  0  0  0  0  0  0  0  0  0  0
    8.3374   -1.3134   23.2002 C   0  0  0  0  0  0  0  0  0  0  0  0
    7.0641   -1.6933   23.6215 C   0  0  0  0  0  0  0  0  0  0  0  0
    6.5068   -1.0932   24.7449 C   0  0  0  0  0  0  0  0  0  0  0  0
    5.2734   -1.4578   25.1244 F   0  0  0  0  0  0  0  0  0  0  0  0
    7.2101   -0.1143   25.4420 C   0  0  0  0  0  0  0  0  0  0  0  0
    6.5865    0.4770   26.6343 C   0  0  0  0  0  0  0  0  0  0  0  0
    6.2224    1.6485   26.5804 O   0  0  0  0  0  0  0  0  0  0  0  0
    6.4531   -0.3227   27.7510 N   0  0  0  0  0  0  0  0  0  0  0  0
    6.8761   -1.7122   27.8617 C   0  0  0  0  0  0  0  0  0  0  0  0
    6.6345   -2.1004   29.3129 C   0  0  0  0  0  0  0  0  0  0  0  0
    6.6452   -0.7613   30.0460 C   0  0  0  0  0  0  0  0  0  0  0  0
    6.0267    0.2152   29.0376 C   0  0  2  0  0  0  0  0  0  0  0  0
    4.5157    0.2210   29.1010 C   0  0  0  0  0  0  0  0  0  0  0  0
    3.7119   -0.2839   28.1767 N   0  0  0  0  0  0  0  0  0  0  0  0
    2.4345   -0.0348   28.5987 C   0  0  0  0  0  0  0  0  0  0  0  0
    1.2147   -0.3478   27.9807 C   0  0  0  0  0  0  0  0  0  0  0  0
    0.0225    0.0207   28.6148 C   0  0  0  0  0  0  0  0  0  0  0  0
    0.0454    0.6885   29.8401 C   0  0  0  0  0  0  0  0  0  0  0  0
    1.2540    1.0068   30.4710 C   0  0  0  0  0  0  0  0  0  0  0  0
    2.4350    0.6254   29.8203 C   0  0  0  0  0  0  0  0  0  0  0  0
    3.7713    0.7620   30.1320 N   0  0  0  0  0  0  0  0  0  0  0  0
    4.2572    1.3821   31.3414 C   0  0  0  0  0  0  0  0  0  0  0  0
  1  2  1  0
  2  3  1  0
  3  4  2  0
  4  5  1  0
  5  6  2  0
  6  7  1  0
  7  8  1  0
  7  9  2  0
  9 10  1  0
 10 11  2  0
 10 12  1  0
 12 13  1  0
 13 14  1  0
 14 15  1  0
 15 16  1  0
 16 17  1  6
 17 18  2  0
 18 19  1  0
 19 20  2  0
 20 21  1  0
 21 22  2  0
 22 23  1  0
 23 24  2  0
 24 25  1  0
 25 26  1  0
  9  3  1  0
 16 12  1  0
 25 17  1  0
 24 19  1  0
M  END
