
     RDKit          3D

 23 25  0  0  0  0  0  0  0  0999 V2000
   13.2474    1.5315   25.6604 O   0  0  0  0  0  0  0  0  0  0  0  0
   12.8892    1.2415   24.5222 C   0  0  0  0  0  0  0  0  0  0  0  0
   13.3495   -0.0448   23.9686 C   0  0  0  0  0  0  0  0  0  0  0  0
   13.0524   -1.2232   24.6582 C   0  0  0  0  0  0  0  0  0  0  0  0
   13.4738   -2.4463   24.1378 C   0  0  0  0  0  0  0  0  0  0  0  0
   14.1737   -2.4869   22.9296 C   0  0  0  0  0  0  0  0  0  0  0  0
   14.4474   -1.3077   22.2326 C   0  0  0  0  0  0  0  0  0  0  0  0
   14.0294   -0.0809   22.7476 C   0  0  0  0  0  0  0  0  0  0  0  0
   12.1013    2.0737   23.7258 N   0  0  0  0  0  0  0  0  0  0  0  0
   11.5732    3.3800   24.1451 C   0  0  0  0  0  0  0  0  0  0  0  0
   10.2473    3.3116   24.9073 C   0  0  0  0  0  0  0  0  0  0  0  0
    8.8724    2.5936   23.9409 S   0  0  0  0  0  0  0  0  0  0  0  0
    9.4246    0.8377   23.9217 C   0  0  1  0  0  0  0  0  0  0  0  0
    8.2227   -0.0915   23.9311 C   0  0  0  0  0  0  0  0  0  0  0  0
    7.1477    0.0675   23.0393 C   0  0  0  0  0  0  0  0  0  0  0  0
    6.0678   -0.8119   23.0778 C   0  0  0  0  0  0  0  0  0  0  0  0
    5.0529   -0.6451   22.2201 F   0  0  0  0  0  0  0  0  0  0  0  0
    6.0254   -1.8601   23.9900 C   0  0  0  0  0  0  0  0  0  0  0  0
    7.0816   -2.0308   24.8818 C   0  0  0  0  0  0  0  0  0  0  0  0
    8.1641   -1.1519   24.8468 C   0  0  0  0  0  0  0  0  0  0  0  0
    9.1655   -1.3422   25.7180 F   0  0  0  0  0  0  0  0  0  0  0  0
   10.3813    0.5074   22.7646 C   0  0  0  0  0  0  0  0  0  0  0  0
   11.5219    1.4976   22.5169 C   0  0  0  0  0  0  0  0  0  0  0  0
  1  2  2  0
  2  3  1  0
  3  4  2  0
  4  5  1  0
  5  6  2  0
  6  7  1  0
  7  8  2  0
  2  9  1  0
  9 10  1  0
 10 11  1  0
 11 12  1  0
 12 13  1  0
 13 14  1  6
 14 15  2  0
 15 16  1  0
 16 17  1  0
 16 18  2  0
 18 19  1  0
 19 20  2  0
 20 21  1  0
 13 22  1  0
 22 23  1  0
  8  3  1  0
 23  9  1  0
 20 14  1  0
M  END
