
     RDKit          3D

 31 34  0  0  0  0  0  0  0  0999 V2000
    2.0495    7.3335   23.5834 C   0  0  0  0  0  0  0  0  0  0  0  0
    2.4457    7.5324   24.9401 O   0  0  0  0  0  0  0  0  0  0  0  0
    3.4014    6.6104   25.2908 C   0  0  0  0  0  0  0  0  0  0  0  0
    3.7836    5.6728   24.3279 C   0  0  0  0  0  0  0  0  0  0  0  0
    4.7285    4.7024   24.6491 C   0  0  0  0  0  0  0  0  0  0  0  0
    5.2460    4.6561   25.9457 C   0  0  0  0  0  0  0  0  0  0  0  0
    6.2653    3.6398   26.2768 C   0  0  0  0  0  0  0  0  0  0  0  0
    6.0035    2.9012   27.2214 O   0  0  0  0  0  0  0  0  0  0  0  0
    7.4037    3.5911   25.4855 N   0  0  0  0  0  0  0  0  0  0  0  0
    8.5236    2.7717   25.7434 C   0  0  0  0  0  0  0  0  0  0  0  0
    8.7382    1.8888   26.7907 C   0  0  0  0  0  0  0  0  0  0  0  0
    9.9386    1.1720   26.8296 C   0  0  0  0  0  0  0  0  0  0  0  0
   10.9078    1.3620   25.8295 C   0  0  0  0  0  0  0  0  0  0  0  0
   12.4244    0.4251   25.8903 S   0  0  0  0  0  0  0  0  0  0  0  0
   13.5199    1.3671   25.8009 O   0  0  0  0  0  0  0  0  0  0  0  0
   12.3202   -0.4918   27.0068 O   0  0  0  0  0  0  0  0  0  0  0  0
   12.3757   -0.4857   24.4489 N   0  0  0  0  0  0  0  0  0  0  0  0
   11.0904   -1.1554   24.1356 C   0  0  0  0  0  0  0  0  0  0  0  0
   11.3311   -2.2574   23.1062 C   0  0  0  0  0  0  0  0  0  0  0  0
   12.0070   -1.7086   21.8531 C   0  0  0  0  0  0  0  0  0  0  0  0
   13.2833   -0.9551   22.2153 C   0  0  0  0  0  0  0  0  0  0  0  0
   13.0107    0.1272   23.2567 C   0  0  0  0  0  0  0  0  0  0  0  0
   10.6734    2.2247   24.7532 C   0  0  0  0  0  0  0  0  0  0  0  0
    9.4757    2.9242   24.7322 C   0  0  0  0  0  0  0  0  0  0  0  0
    8.9746    3.8301   23.6524 C   0  0  0  0  0  0  0  0  0  0  0  0
    7.7299    4.4577   24.3174 C   0  0  2  0  0  0  0  0  0  0  0  0
    8.0281    5.8947   24.7572 C   0  0  0  0  0  0  0  0  0  0  0  0
    4.8686    5.5992   26.9125 C   0  0  0  0  0  0  0  0  0  0  0  0
    3.9333    6.5839   26.5914 C   0  0  0  0  0  0  0  0  0  0  0  0
    3.4775    7.5454   27.4536 O   0  0  0  0  0  0  0  0  0  0  0  0
    4.0660    7.5931   28.7472 C   0  0  0  0  0  0  0  0  0  0  0  0
  1  2  1  0
  2  3  1  0
  3  4  2  0
  4  5  1  0
  5  6  2  0
  6  7  1  0
  7  8  2  0
  7  9  1  0
  9 10  1  0
 10 11  2  0
 11 12  1  0
 12 13  2  0
 13 14  1  0
 14 15  2  0
 14 16  2  0
 14 17  1  0
 17 18  1  0
 18 19  1  0
 19 20  1  0
 20 21  1  0
 21 22  1  0
 13 23  1  0
 23 24  2  0
 24 25  1  0
 25 26  1  0
 26 27  1  1
  6 28  1  0
 28 29  2  0
 29 30  1  0
 30 31  1  0
 29  3  1  0
 26  9  1  0
 24 10  1  0
 22 17  1  0
M  END
