
     RDKit          3D

 30 32  0  0  0  0  0  0  0  0999 V2000
   12.5615    6.1762   23.1018 C   0  0  0  0  0  0  0  0  0  0  0  0
   13.4011    4.6083   23.0816 S   0  0  0  0  0  0  0  0  0  0  0  0
   14.5313    4.6705   23.9816 O   0  0  0  0  0  0  0  0  0  0  0  0
   13.5556    4.2103   21.6985 O   0  0  0  0  0  0  0  0  0  0  0  0
   12.1953    3.5927   23.7096 N   0  0  0  0  0  0  0  0  0  0  0  0
   12.5683    2.2397   23.9586 C   0  0  0  0  0  0  0  0  0  0  0  0
   11.6832    1.3919   24.6290 C   0  0  0  0  0  0  0  0  0  0  0  0
   12.0078    0.0453   24.8006 C   0  0  0  0  0  0  0  0  0  0  0  0
   13.2113   -0.4436   24.2824 C   0  0  0  0  0  0  0  0  0  0  0  0
   13.5907   -2.1684   24.4558 S   0  0  0  0  0  0  0  0  0  0  0  0
   14.5215   -2.5542   23.4196 O   0  0  0  0  0  0  0  0  0  0  0  0
   13.8543   -2.4186   25.8550 O   0  0  0  0  0  0  0  0  0  0  0  0
   12.1079   -2.8757   24.1162 N   0  0  0  0  0  0  0  0  0  0  0  0
   11.4234   -3.6349   25.1677 C   0  0  0  0  0  0  0  0  0  0  0  0
    9.9277   -3.3356   25.0881 C   0  0  0  0  0  0  0  0  0  0  0  0
    9.5492   -2.6453   23.7784 C   0  0  0  0  0  0  0  0  0  0  0  0
    8.1102   -2.4010   23.7372 N   0  0  0  0  0  0  0  0  0  0  0  0
    7.3347   -2.8913   22.6636 C   0  0  0  0  0  0  0  0  0  0  0  0
    6.8699   -4.2068   22.6205 C   0  0  0  0  0  0  0  0  0  0  0  0
    6.1029   -4.6153   21.5459 C   0  0  0  0  0  0  0  0  0  0  0  0
    5.7475   -3.8134   20.5260 N   0  0  0  0  0  0  0  0  0  0  0  0
    6.1367   -2.5328   20.5720 C   0  0  0  0  0  0  0  0  0  0  0  0
    5.7373   -1.7034   19.5351 C   0  0  0  0  0  0  0  0  0  0  0  0
    6.0762   -0.3535   19.5162 C   0  0  0  0  0  0  0  0  0  0  0  0
    5.5603    0.6422   18.2120 Cl  0  0  0  0  0  0  0  0  0  0  0  0
    6.8220    0.1956   20.5479 C   0  0  0  0  0  0  0  0  0  0  0  0
    7.2383   -0.6226   21.5974 C   0  0  0  0  0  0  0  0  0  0  0  0
    6.9202   -2.0036   21.6270 C   0  0  0  0  0  0  0  0  0  0  0  0
   14.1027    0.4036   23.6179 C   0  0  0  0  0  0  0  0  0  0  0  0
   13.7725    1.7492   23.4492 C   0  0  0  0  0  0  0  0  0  0  0  0
  1  2  1  0
  2  3  2  0
  2  4  2  0
  2  5  1  0
  5  6  1  0
  6  7  2  0
  7  8  1  0
  8  9  2  0
  9 10  1  0
 10 11  2  0
 10 12  2  0
 10 13  1  0
 13 14  1  0
 14 15  1  0
 15 16  1  0
 16 17  1  0
 17 18  1  0
 18 19  2  0
 19 20  1  0
 20 21  2  0
 21 22  1  0
 22 23  2  0
 23 24  1  0
 24 25  1  0
 24 26  2  0
 26 27  1  0
 27 28  2  0
  9 29  1  0
 29 30  2  0
 30  6  1  0
 28 18  1  0
 28 22  1  0
M  END
