
     RDKit          3D

 30 33  0  0  0  0  0  0  0  0999 V2000
   -2.1463   -4.4764   29.6263 C   0  0  0  0  0  0  0  0  0  0  0  0
   -1.5417   -5.4523   30.4627 O   0  0  0  0  0  0  0  0  0  0  0  0
   -0.5119   -6.1886   29.9363 C   0  0  0  0  0  0  0  0  0  0  0  0
    0.8234   -5.7787   29.8935 C   0  0  0  0  0  0  0  0  0  0  0  0
    1.8150   -6.6024   29.3314 C   0  0  0  0  0  0  0  0  0  0  0  0
    3.2573   -6.1213   29.2934 C   0  0  2  0  0  0  0  0  0  0  0  0
    3.8161   -6.1235   27.8418 C   0  0  0  0  0  0  0  0  0  0  0  0
    5.2726   -5.8077   27.8801 C   0  0  0  0  0  0  0  0  0  0  0  0
    6.0792   -5.9142   28.9938 C   0  0  0  0  0  0  0  0  0  0  0  0
    7.3366   -5.4743   28.5752 C   0  0  0  0  0  0  0  0  0  0  0  0
    7.3512   -5.1335   27.2854 N   0  0  0  0  0  0  0  0  0  0  0  0
    6.0781   -5.3764   26.8338 N   0  0  0  0  0  0  0  0  0  0  0  0
    5.7210   -5.1984   25.4464 C   0  0  0  0  0  0  0  0  0  0  0  0
    6.3749   -4.2502   24.7372 N   0  0  0  0  0  0  0  0  0  0  0  0
    6.0238   -4.0918   23.4452 C   0  0  0  0  0  0  0  0  0  0  0  0
    6.7514   -3.0439   22.6577 C   0  0  0  0  0  0  0  0  0  0  0  0
    5.0376   -4.8513   22.8482 C   0  0  0  0  0  0  0  0  0  0  0  0
    4.4154   -5.7948   23.6404 C   0  0  0  0  0  0  0  0  0  0  0  0
    3.3318   -6.6635   23.0766 C   0  0  0  0  0  0  0  0  0  0  0  0
    4.7439   -5.9780   24.9333 N   0  0  0  0  0  0  0  0  0  0  0  0
    5.5900   -6.3892   30.2694 C   0  0  0  0  0  0  0  0  0  0  0  0
    6.3025   -6.4345   31.2673 O   0  0  0  0  0  0  0  0  0  0  0  0
    4.1559   -6.9088   30.2760 C   0  0  0  0  0  0  0  0  0  0  0  0
    1.4471   -7.8529   28.8031 C   0  0  0  0  0  0  0  0  0  0  0  0
    0.1178   -8.2828   28.8348 C   0  0  0  0  0  0  0  0  0  0  0  0
   -0.3299   -9.4819   28.3433 O   0  0  0  0  0  0  0  0  0  0  0  0
   -0.0985   -9.7570   26.9691 C   0  0  0  0  0  0  0  0  0  0  0  0
   -0.8497   -7.4507   29.4210 C   0  0  0  0  0  0  0  0  0  0  0  0
   -2.1699   -7.8474   29.4192 O   0  0  0  0  0  0  0  0  0  0  0  0
   -2.6370   -7.9721   30.7613 C   0  0  0  0  0  0  0  0  0  0  0  0
  1  2  1  0
  2  3  1  0
  3  4  2  0
  4  5  1  0
  6  5  1  6
  6  7  1  0
  7  8  1  0
  8  9  2  0
  9 10  1  0
 10 11  2  0
 11 12  1  0
 12 13  1  0
 13 14  2  0
 14 15  1  0
 15 16  1  0
 15 17  2  0
 17 18  1  0
 18 19  1  0
 18 20  2  0
  9 21  1  0
 21 22  2  0
 21 23  1  0
  5 24  2  0
 24 25  1  0
 25 26  1  0
 26 27  1  0
 25 28  2  0
 28 29  1  0
 29 30  1  0
 28  3  1  0
 23  6  1  0
 12  8  1  0
 20 13  1  0
M  END
