
     RDKit          3D

 35 38  0  0  0  0  0  0  0  0999 V2000
    7.4074   -5.9057   28.9264 C   0  0  0  0  0  0  0  0  0  0  0  0
    8.3140   -5.8761   27.8300 O   0  0  0  0  0  0  0  0  0  0  0  0
    7.7891   -5.6583   26.5829 C   0  0  0  0  0  0  0  0  0  0  0  0
    6.4205   -5.5600   26.3038 C   0  0  0  0  0  0  0  0  0  0  0  0
    5.9784   -5.3428   24.9971 C   0  0  0  0  0  0  0  0  0  0  0  0
    6.9084   -5.2221   23.9639 C   0  0  0  0  0  0  0  0  0  0  0  0
    6.3217   -4.9393   22.3125 S   0  0  0  0  0  0  0  0  0  0  0  0
    7.2288   -5.5589   21.3698 O   0  0  0  0  0  0  0  0  0  0  0  0
    4.9065   -5.2493   22.3053 O   0  0  0  0  0  0  0  0  0  0  0  0
    6.4987   -3.2380   22.1463 N   0  0  0  0  0  0  0  0  0  0  0  0
    7.9020   -2.7485   22.2821 C   0  0  0  0  0  0  0  0  0  0  0  0
    7.9001   -1.2241   22.3676 C   0  0  0  0  0  0  0  0  0  0  0  0
    7.2231   -0.6044   21.1490 C   0  0  0  0  0  0  0  0  0  0  0  0
    5.8285   -1.1915   20.9497 C   0  0  0  0  0  0  0  0  0  0  0  0
    5.8678   -2.7170   20.8994 C   0  0  0  0  0  0  0  0  0  0  0  0
    8.2747   -5.3296   24.2215 C   0  0  0  0  0  0  0  0  0  0  0  0
    8.7267   -5.5409   25.5356 C   0  0  0  0  0  0  0  0  0  0  0  0
   10.2171   -5.6640   25.7905 C   0  0  0  0  0  0  0  0  0  0  0  0
   10.8045   -4.4146   26.4457 C   0  0  0  0  0  0  0  0  0  0  0  0
   11.5535   -3.5377   25.4600 C   0  0  0  0  0  0  0  0  0  0  0  0
   11.0862   -3.1797   24.3839 O   0  0  0  0  0  0  0  0  0  0  0  0
   12.7929   -3.1416   25.9187 N   0  0  0  0  0  0  0  0  0  0  0  0
   13.6582   -2.2973   25.1143 C   0  0  0  0  0  0  0  0  0  0  0  0
   13.4496   -0.8202   25.4445 C   0  0  0  0  0  0  0  0  0  0  0  0
   13.7075    0.0982   24.2428 C   0  0  0  0  0  0  0  0  0  0  0  0
   12.8430    1.2864   24.1961 N   0  0  0  0  0  0  0  0  0  0  0  0
   11.6663    1.0827   23.3305 C   0  0  0  0  0  0  0  0  0  0  0  0
   10.6950    2.2667   23.4343 C   0  0  0  0  0  0  0  0  0  0  0  0
   11.3838    3.6012   23.3037 C   0  0  0  0  0  0  0  0  0  0  0  0
   10.6330    4.7597   23.0609 C   0  0  0  0  0  0  0  0  0  0  0  0
   11.2589    6.0048   22.9982 C   0  0  0  0  0  0  0  0  0  0  0  0
   12.6371    6.1020   23.1845 C   0  0  0  0  0  0  0  0  0  0  0  0
   13.3911    4.9534   23.4301 C   0  0  0  0  0  0  0  0  0  0  0  0
   12.7724    3.6953   23.5015 C   0  0  0  0  0  0  0  0  0  0  0  0
   13.6105    2.4528   23.7142 C   0  0  0  0  0  0  0  0  0  0  0  0
  1  2  1  0
  2  3  1  0
  3  4  2  0
  4  5  1  0
  5  6  2  0
  6  7  1  0
  7  8  2  0
  7  9  2  0
  7 10  1  0
 10 11  1  0
 11 12  1  0
 12 13  1  0
 13 14  1  0
 14 15  1  0
  6 16  1  0
 16 17  2  0
 17 18  1  0
 18 19  1  0
 19 20  1  0
 20 21  2  0
 20 22  1  0
 22 23  1  0
 23 24  1  0
 24 25  1  0
 25 26  1  0
 26 27  1  0
 27 28  1  0
 28 29  1  0
 29 30  2  0
 30 31  1  0
 31 32  2  0
 32 33  1  0
 33 34  2  0
 34 35  1  0
 17  3  1  0
 35 26  1  0
 15 10  1  0
 34 29  1  0
M  END
