
     RDKit          3D

 24 27  0  0  0  0  0  0  0  0999 V2000
    7.5762   -5.6312   27.3505 C   0  0  0  0  0  0  0  0  0  0  0  0
    7.1443   -5.0348   26.0620 C   0  0  0  0  0  0  0  0  0  0  0  0
    6.7202   -5.8146   25.0610 N   0  0  0  0  0  0  0  0  0  0  0  0
    6.3884   -4.9501   24.0879 N   0  0  0  0  0  0  0  0  0  0  0  0
    5.8418   -5.4637   22.8529 C   0  0  0  0  0  0  0  0  0  0  0  0
    6.5936   -3.6360   24.4243 C   0  0  0  0  0  0  0  0  0  0  0  0
    6.2279   -2.5063   23.5340 C   0  0  0  0  0  0  0  0  0  0  0  0
    7.1294   -3.6614   25.7048 C   0  0  0  0  0  0  0  0  0  0  0  0
    7.5224   -2.5402   26.5397 C   0  0  0  0  0  0  0  0  0  0  0  0
    7.2474   -2.5150   27.7367 O   0  0  0  0  0  0  0  0  0  0  0  0
    8.2506   -1.5317   25.9327 N   0  0  0  0  0  0  0  0  0  0  0  0
    8.6821   -0.3766   26.6965 C   0  0  0  0  0  0  0  0  0  0  0  0
    9.4299    0.4908   25.6935 C   0  0  0  0  0  0  0  0  0  0  0  0
   10.0295   -0.5250   24.7102 C   0  0  1  0  0  0  0  0  0  0  0  0
   11.4044   -0.9959   25.1612 C   0  0  0  0  0  0  0  0  0  0  0  0
   12.4675   -0.0570   25.1613 C   0  0  0  0  0  0  0  0  0  0  0  0
   13.7565   -0.4123   25.5731 C   0  0  0  0  0  0  0  0  0  0  0  0
   13.9606   -1.7088   25.9859 C   0  0  0  0  0  0  0  0  0  0  0  0
   12.9412   -2.6287   25.9992 C   0  0  0  0  0  0  0  0  0  0  0  0
   11.6599   -2.3067   25.5987 C   0  0  0  0  0  0  0  0  0  0  0  0
   13.3481   -3.8475   26.4454 O   0  0  0  0  0  0  0  0  0  0  0  0
   14.7423   -3.5875   26.7095 C   0  0  0  0  0  0  0  0  0  0  0  0
   15.1384   -2.2305   26.4199 O   0  0  0  0  0  0  0  0  0  0  0  0
    8.9279   -1.5966   24.6411 C   0  0  0  0  0  0  0  0  0  0  0  0
  1  2  1  0
  2  3  2  0
  3  4  1  0
  4  5  1  0
  4  6  1  0
  6  7  1  0
  6  8  2  0
  8  9  1  0
  9 10  2  0
  9 11  1  0
 11 12  1  0
 12 13  1  0
 13 14  1  0
 14 15  1  1
 15 16  2  0
 16 17  1  0
 17 18  2  0
 18 19  1  0
 19 20  2  0
 19 21  1  0
 21 22  1  0
 22 23  1  0
 14 24  1  0
  8  2  1  0
 24 11  1  0
 20 15  1  0
 23 18  1  0
M  END
