
     RDKit          3D

 31 34  0  0  0  0  0  0  0  0999 V2000
   -3.3887    8.6213   17.0248 C   0  0  0  0  0  0  0  0  0  0  0  0
   -1.9993    8.3982   16.8191 O   0  0  0  0  0  0  0  0  0  0  0  0
   -1.1950    8.4445   17.9283 C   0  0  0  0  0  0  0  0  0  0  0  0
   -0.4942    7.3503   18.4369 C   0  0  0  0  0  0  0  0  0  0  0  0
    0.2866    7.4991   19.5922 C   0  0  0  0  0  0  0  0  0  0  0  0
    1.0424    6.3511   20.1656 C   0  0  0  0  0  0  0  0  0  0  0  0
    0.6422    5.2198   19.9233 O   0  0  0  0  0  0  0  0  0  0  0  0
    2.1652    6.7021   20.8936 N   0  0  0  0  0  0  0  0  0  0  0  0
    3.0671    5.8343   21.5477 C   0  0  0  0  0  0  0  0  0  0  0  0
    2.7016    4.9749   22.5815 C   0  0  0  0  0  0  0  0  0  0  0  0
    3.6480    4.1416   23.1959 C   0  0  0  0  0  0  0  0  0  0  0  0
    4.9893    4.1689   22.7724 C   0  0  0  0  0  0  0  0  0  0  0  0
    6.0215    3.4079   23.2855 N   0  0  0  0  0  0  0  0  0  0  0  0
    7.1634    3.6717   22.6854 C   0  0  0  0  0  0  0  0  0  0  0  0
    8.3386    3.0352   22.9968 N   0  0  0  0  0  0  0  0  0  0  0  0
    9.4121    3.9098   23.5168 C   0  0  0  0  0  0  0  0  0  0  0  0
   10.5620    3.0851   24.1342 C   0  0  0  0  0  0  0  0  0  0  0  0
   11.1071    2.0782   23.1989 N   0  0  0  0  0  0  0  0  0  0  0  0
   12.1688    1.3042   23.8381 C   0  0  0  0  0  0  0  0  0  0  0  0
   10.0076    1.1952   22.7610 C   0  0  0  0  0  0  0  0  0  0  0  0
    8.8397    1.9702   22.1079 C   0  0  0  0  0  0  0  0  0  0  0  0
    7.0215    4.8608   21.4310 S   0  0  0  0  0  0  0  0  0  0  0  0
    5.3431    5.0326   21.7429 C   0  0  0  0  0  0  0  0  0  0  0  0
    4.4031    5.8729   21.1177 C   0  0  0  0  0  0  0  0  0  0  0  0
    0.3984    8.7457   20.2242 C   0  0  0  0  0  0  0  0  0  0  0  0
   -0.2995    9.8471   19.7293 C   0  0  0  0  0  0  0  0  0  0  0  0
   -0.2682   11.1022   20.2790 O   0  0  0  0  0  0  0  0  0  0  0  0
    0.4737   11.2662   21.4810 C   0  0  0  0  0  0  0  0  0  0  0  0
   -1.1177    9.6784   18.5984 C   0  0  0  0  0  0  0  0  0  0  0  0
   -1.7825   10.7657   18.0748 O   0  0  0  0  0  0  0  0  0  0  0  0
   -1.2220   11.1134   16.8101 C   0  0  0  0  0  0  0  0  0  0  0  0
  1  2  1  0
  2  3  1  0
  3  4  2  0
  4  5  1  0
  5  6  1  0
  6  7  2  0
  6  8  1  0
  8  9  1  0
  9 10  2  0
 10 11  1  0
 11 12  2  0
 12 13  1  0
 13 14  2  0
 14 15  1  0
 15 16  1  0
 16 17  1  0
 17 18  1  0
 18 19  1  0
 18 20  1  0
 20 21  1  0
 14 22  1  0
 22 23  1  0
 23 24  2  0
  5 25  2  0
 25 26  1  0
 26 27  1  0
 27 28  1  0
 26 29  2  0
 29 30  1  0
 30 31  1  0
 29  3  1  0
 24  9  1  0
 23 12  1  0
 21 15  1  0
M  END
