
     RDKit          3D

 25 26  0  0  0  0  0  0  0  0999 V2000
    6.4050   -1.2992   18.4821 C   0  0  0  0  0  0  0  0  0  0  0  0
    6.8894    0.0313   18.6145 O   0  0  0  0  0  0  0  0  0  0  0  0
    6.1756    0.8623   19.4435 C   0  0  0  0  0  0  0  0  0  0  0  0
    4.8548    1.2557   19.2027 C   0  0  0  0  0  0  0  0  0  0  0  0
    4.1794    2.1016   20.0967 C   0  0  0  0  0  0  0  0  0  0  0  0
    2.7674    2.5442   19.7997 C   0  0  0  0  0  0  0  0  0  0  0  0
    2.7551    3.4675   18.6609 N   0  0  0  0  0  0  0  0  0  0  0  0
    1.6626    4.4488   18.8004 C   0  0  0  0  0  0  0  0  0  0  0  0
    1.2820    5.0596   17.4306 C   0  0  0  0  0  0  0  0  0  0  0  0
    2.3793    5.8107   16.8045 N   0  0  0  0  0  0  0  0  0  0  0  0
    2.0050    6.3664   15.4934 C   0  0  0  0  0  0  0  0  0  0  0  0
    1.6647    5.2582   14.4862 C   0  0  0  0  0  0  0  0  0  0  0  0
    2.7737    4.3839   14.2894 O   0  0  0  0  0  0  0  0  0  0  0  0
    4.8500    2.5554   21.2379 C   0  0  0  0  0  0  0  0  0  0  0  0
    6.1628    2.1517   21.4966 C   0  0  0  0  0  0  0  0  0  0  0  0
    6.8258    1.2934   20.6133 C   0  0  0  0  0  0  0  0  0  0  0  0
    8.1187    0.8665   20.7855 O   0  0  0  0  0  0  0  0  0  0  0  0
    8.3445   -0.1060   21.8040 C   0  0  0  0  0  0  0  0  0  0  0  0
    9.8067   -0.1175   22.1926 C   0  0  0  0  0  0  0  0  0  0  0  0
   10.5534   -1.3036   22.1602 C   0  0  0  0  0  0  0  0  0  0  0  0
   11.8919   -1.3103   22.5516 C   0  0  0  0  0  0  0  0  0  0  0  0
   12.4968   -0.1350   22.9949 C   0  0  0  0  0  0  0  0  0  0  0  0
   11.7644    1.0553   23.0634 C   0  0  0  0  0  0  0  0  0  0  0  0
   12.4242    2.3257   23.5113 C   0  0  0  0  0  0  0  0  0  0  0  0
   10.4234    1.0568   22.6538 C   0  0  0  0  0  0  0  0  0  0  0  0
  1  2  1  0
  2  3  1  0
  3  4  2  0
  4  5  1  0
  5  6  1  0
  6  7  1  0
  7  8  1  0
  8  9  1  0
  9 10  1  0
 10 11  1  0
 11 12  1  0
 12 13  1  0
  5 14  2  0
 14 15  1  0
 15 16  2  0
 16 17  1  0
 17 18  1  0
 18 19  1  0
 19 20  2  0
 20 21  1  0
 21 22  2  0
 22 23  1  0
 23 24  1  0
 23 25  2  0
 16  3  1  0
 25 19  1  0
M  END
