
     RDKit          3D

 23 25  0  0  0  0  0  0  0  0999 V2000
   13.3475   -0.1548   26.7128 C   0  0  0  0  0  0  0  0  0  0  0  0
   13.1825    0.6773   25.5728 O   0  0  0  0  0  0  0  0  0  0  0  0
   12.0696    0.4748   24.7983 C   0  0  0  0  0  0  0  0  0  0  0  0
   10.7881    0.9367   25.1066 C   0  0  0  0  0  0  0  0  0  0  0  0
    9.7049    0.6789   24.2489 C   0  0  0  0  0  0  0  0  0  0  0  0
    8.3725    1.1701   24.5922 C   0  0  0  0  0  0  0  0  0  0  0  0
    7.2837    0.3882   24.6819 N   0  0  0  0  0  0  0  0  0  0  0  0
    6.2665    1.2744   25.0263 O   0  0  0  0  0  0  0  0  0  0  0  0
    6.8360    2.5118   25.1136 C   0  0  0  0  0  0  0  0  0  0  0  0
    5.9651    3.6247   25.4659 C   0  0  0  0  0  0  0  0  0  0  0  0
    6.4518    4.9236   25.6420 C   0  0  0  0  0  0  0  0  0  0  0  0
    5.5579    5.9273   25.9766 C   0  0  0  0  0  0  0  0  0  0  0  0
    4.2349    5.7265   26.1443 N   0  0  0  0  0  0  0  0  0  0  0  0
    3.7816    4.4684   25.9712 C   0  0  0  0  0  0  0  0  0  0  0  0
    4.5954    3.3999   25.6366 C   0  0  0  0  0  0  0  0  0  0  0  0
    8.1253    2.5012   24.8571 N   0  0  0  0  0  0  0  0  0  0  0  0
    9.9193   -0.0503   23.0665 C   0  0  0  0  0  0  0  0  0  0  0  0
   11.1929   -0.5215   22.7391 C   0  0  0  0  0  0  0  0  0  0  0  0
   11.4964   -1.2389   21.6109 O   0  0  0  0  0  0  0  0  0  0  0  0
   12.8302   -1.7091   21.4718 C   0  0  0  0  0  0  0  0  0  0  0  0
   12.2565   -0.2700   23.6219 C   0  0  0  0  0  0  0  0  0  0  0  0
   13.5246   -0.6940   23.2877 O   0  0  0  0  0  0  0  0  0  0  0  0
   14.3601    0.4341   23.0345 C   0  0  0  0  0  0  0  0  0  0  0  0
  1  2  1  0
  2  3  1  0
  3  4  2  0
  4  5  1  0
  5  6  1  0
  6  7  2  0
  7  8  1  0
  8  9  1  0
  9 10  1  0
 10 11  2  0
 11 12  1  0
 12 13  2  0
 13 14  1  0
 14 15  2  0
  9 16  2  0
  5 17  2  0
 17 18  1  0
 18 19  1  0
 19 20  1  0
 18 21  2  0
 21 22  1  0
 22 23  1  0
 21  3  1  0
 16  6  1  0
 15 10  1  0
M  END
