
     RDKit          3D

 29 32  0  0  0  0  0  0  0  0999 V2000
   11.3043   -1.9035   26.1966 C   0  0  0  0  0  0  0  0  0  0  0  0
   11.0094   -1.5289   24.8573 O   0  0  0  0  0  0  0  0  0  0  0  0
   10.2636   -0.3939   24.6713 C   0  0  0  0  0  0  0  0  0  0  0  0
    8.9635   -0.2123   25.1407 C   0  0  0  0  0  0  0  0  0  0  0  0
    8.2913    0.9864   24.8738 C   0  0  0  0  0  0  0  0  0  0  0  0
    6.9145    1.2024   25.3695 C   0  0  0  0  0  0  0  0  0  0  0  0
    6.0315    1.4323   24.5480 O   0  0  0  0  0  0  0  0  0  0  0  0
    6.6835    1.1195   26.7284 N   0  0  0  0  0  0  0  0  0  0  0  0
    7.6518    0.8372   27.7764 C   0  0  0  0  0  0  0  0  0  0  0  0
    6.8192    0.3059   28.9378 C   0  0  0  0  0  0  0  0  0  0  0  0
    5.4734    1.0341   28.7718 C   0  0  2  0  0  0  0  0  0  0  0  0
    4.3665    0.4188   29.5261 N   0  0  0  0  0  0  0  0  0  0  0  0
    3.2142    1.3266   29.6597 C   0  0  0  0  0  0  0  0  0  0  0  0
    2.1645    0.7443   30.6161 C   0  0  0  0  0  0  0  0  0  0  0  0
    1.8101   -0.6803   30.2851 C   0  0  0  0  0  0  0  0  0  0  0  0
    0.6501   -1.2617   30.8142 C   0  0  0  0  0  0  0  0  0  0  0  0
    0.3397   -2.5926   30.5364 C   0  0  0  0  0  0  0  0  0  0  0  0
    1.1873   -3.3521   29.7340 C   0  0  0  0  0  0  0  0  0  0  0  0
    2.3494   -2.7832   29.2120 C   0  0  0  0  0  0  0  0  0  0  0  0
    2.6783   -1.4478   29.4919 C   0  0  0  0  0  0  0  0  0  0  0  0
    3.9241   -0.8390   28.8827 C   0  0  0  0  0  0  0  0  0  0  0  0
    5.3263    1.0025   27.2358 C   0  0  0  0  0  0  0  0  0  0  0  0
    8.9166    2.0303   24.1821 C   0  0  0  0  0  0  0  0  0  0  0  0
   10.2173    1.8657   23.7088 C   0  0  0  0  0  0  0  0  0  0  0  0
   10.9193    2.8137   23.0106 O   0  0  0  0  0  0  0  0  0  0  0  0
   10.1911    3.9390   22.5354 C   0  0  0  0  0  0  0  0  0  0  0  0
   10.8711    0.6399   23.9338 C   0  0  0  0  0  0  0  0  0  0  0  0
   12.1703    0.4788   23.5025 O   0  0  0  0  0  0  0  0  0  0  0  0
   12.2308   -0.5584   22.5258 C   0  0  0  0  0  0  0  0  0  0  0  0
  1  2  1  0
  2  3  1  0
  3  4  2  0
  4  5  1  0
  5  6  1  0
  6  7  2  0
  6  8  1  0
  8  9  1  0
  9 10  1  0
 10 11  1  0
 11 12  1  1
 12 13  1  0
 13 14  1  0
 14 15  1  0
 15 16  2  0
 16 17  1  0
 17 18  2  0
 18 19  1  0
 19 20  2  0
 20 21  1  0
 11 22  1  0
  5 23  2  0
 23 24  1  0
 24 25  1  0
 25 26  1  0
 24 27  2  0
 27 28  1  0
 28 29  1  0
 27  3  1  0
 22  8  1  0
 21 12  1  0
 20 15  1  0
M  END
