
     RDKit          3D

 25 28  0  0  0  0  0  0  0  0999 V2000
   13.1858    3.6671   23.7543 C   0  0  0  0  0  0  0  0  0  0  0  0
   12.2459    4.8095   23.6354 C   0  0  0  0  0  0  0  0  0  0  0  0
   12.6419    6.0476   23.9562 N   0  0  0  0  0  0  0  0  0  0  0  0
   11.5743    6.8103   23.6842 N   0  0  0  0  0  0  0  0  0  0  0  0
   10.4958    6.1091   23.2202 C   0  0  0  0  0  0  0  0  0  0  0  0
    9.2485    6.7907   22.8027 C   0  0  0  0  0  0  0  0  0  0  0  0
   10.8905    4.7801   23.2096 C   0  0  0  0  0  0  0  0  0  0  0  0
   10.1325    3.6184   22.7799 C   0  0  0  0  0  0  0  0  0  0  0  0
   10.6019    2.8169   21.9758 O   0  0  0  0  0  0  0  0  0  0  0  0
    8.8849    3.4374   23.3452 N   0  0  0  0  0  0  0  0  0  0  0  0
    8.0553    2.3034   22.9759 C   0  0  0  0  0  0  0  0  0  0  0  0
    6.7431    2.4853   23.7451 C   0  0  2  0  0  0  0  0  0  0  0  0
    5.7191    3.1976   22.9244 C   0  0  0  0  0  0  0  0  0  0  0  0
    4.4450    2.7272   22.7182 N   0  0  0  0  0  0  0  0  0  0  0  0
    3.9358    3.6591   21.9524 C   0  0  0  0  0  0  0  0  0  0  0  0
    4.7898    4.6775   21.6789 O   0  0  0  0  0  0  0  0  0  0  0  0
    5.9843    4.3733   22.3349 N   0  0  0  0  0  0  0  0  0  0  0  0
    7.2076    3.2462   25.0123 C   0  0  2  0  0  0  0  0  0  0  0  0
    6.1341    3.8612   25.8873 C   0  0  0  0  0  0  0  0  0  0  0  0
    6.3986    4.9293   26.7583 C   0  0  0  0  0  0  0  0  0  0  0  0
    5.3923    5.4606   27.5700 C   0  0  0  0  0  0  0  0  0  0  0  0
    4.1082    4.9259   27.5344 C   0  0  0  0  0  0  0  0  0  0  0  0
    3.8310    3.8529   26.6934 C   0  0  0  0  0  0  0  0  0  0  0  0
    4.8363    3.3207   25.8830 C   0  0  0  0  0  0  0  0  0  0  0  0
    8.2989    4.1780   24.4545 C   0  0  0  0  0  0  0  0  0  0  0  0
  1  2  1  0
  2  3  2  0
  3  4  1  0
  4  5  1  0
  5  6  1  0
  5  7  2  0
  7  8  1  0
  8  9  2  0
  8 10  1  0
 10 11  1  0
 11 12  1  0
 12 13  1  6
 13 14  1  0
 14 15  2  0
 15 16  1  0
 16 17  1  0
 12 18  1  0
 18 19  1  6
 19 20  2  0
 20 21  1  0
 21 22  2  0
 22 23  1  0
 23 24  2  0
 18 25  1  0
  7  2  1  0
 25 10  1  0
 17 13  2  0
 24 19  1  0
M  END
