
     RDKit          3D

 23 25  0  0  0  0  0  0  0  0999 V2000
    5.5756   -2.6475   20.1577 C   0  0  0  0  0  0  0  0  0  0  0  0
    5.7662   -2.7066   21.5707 O   0  0  0  0  0  0  0  0  0  0  0  0
    6.9129   -2.1083   22.0022 C   0  0  0  0  0  0  0  0  0  0  0  0
    7.9720   -2.0976   21.3854 O   0  0  0  0  0  0  0  0  0  0  0  0
    6.7330   -1.4934   23.3925 C   0  0  2  0  0  0  0  0  0  0  0  0
    6.9934    0.0182   23.3487 C   0  0  0  0  0  0  0  0  0  0  0  0
    8.4098    0.0982   23.8953 C   0  0  2  0  0  0  0  0  0  0  0  0
    8.2834   -0.9517   24.9909 C   0  0  2  0  0  0  0  0  0  0  0  0
    9.6377   -1.2647   25.5914 C   0  0  0  0  0  0  0  0  0  0  0  0
   10.1951    0.0342   26.1825 C   0  0  0  0  0  0  0  0  0  0  0  0
   10.2096    1.2132   25.1809 C   0  0  1  0  0  0  0  0  0  0  0  0
   11.3966    1.0879   24.2132 C   0  0  0  0  0  0  0  0  0  0  0  0
    8.9200    1.3539   24.4437 N   0  0  0  0  0  0  0  0  0  0  0  0
    8.6780    2.5227   23.7038 C   0  0  0  0  0  0  0  0  0  0  0  0
    7.6349    2.7390   23.0942 O   0  0  0  0  0  0  0  0  0  0  0  0
    9.7145    3.5740   23.6831 C   0  0  0  0  0  0  0  0  0  0  0  0
   10.5357    3.7897   22.5771 C   0  0  0  0  0  0  0  0  0  0  0  0
   11.5127    4.7818   22.6403 C   0  0  0  0  0  0  0  0  0  0  0  0
   11.6467    5.5228   23.8133 C   0  0  0  0  0  0  0  0  0  0  0  0
   12.6896    6.5961   23.9104 C   0  0  0  0  0  0  0  0  0  0  0  0
   10.8706    5.3106   24.9034 N   0  0  0  0  0  0  0  0  0  0  0  0
    9.9354    4.3315   24.8224 C   0  0  0  0  0  0  0  0  0  0  0  0
    7.6211   -2.0575   24.3844 O   0  0  0  0  0  0  0  0  0  0  0  0
  1  2  1  0
  2  3  1  0
  3  4  2  0
  5  3  1  6
  5  6  1  0
  7  6  1  1
  7  8  1  0
  8  9  1  6
  9 10  1  0
 10 11  1  0
 11 12  1  6
 11 13  1  0
 13 14  1  0
 14 15  2  0
 14 16  1  0
 16 17  2  0
 17 18  1  0
 18 19  2  0
 19 20  1  0
 19 21  1  0
 21 22  2  0
  8 23  1  0
 23  5  1  0
 13  7  1  0
 22 16  1  0
M  END
