
     RDKit          3D

 33 36  0  0  0  0  0  0  0  0999 V2000
   11.7640    2.6683   22.8566 C   0  0  0  0  0  0  0  0  0  0  0  0
   11.2200    1.5790   23.5905 O   0  0  0  0  0  0  0  0  0  0  0  0
    9.8567    1.5478   23.7340 C   0  0  0  0  0  0  0  0  0  0  0  0
    9.0896    2.6020   24.2260 C   0  0  0  0  0  0  0  0  0  0  0  0
    7.6969    2.4688   24.2852 C   0  0  0  0  0  0  0  0  0  0  0  0
    6.8763    3.6089   24.7300 C   0  0  0  0  0  0  0  0  0  0  0  0
    6.4942    3.6292   25.8977 O   0  0  0  0  0  0  0  0  0  0  0  0
    6.5527    4.6171   23.8623 N   0  0  0  0  0  0  0  0  0  0  0  0
    5.8036    5.7625   24.0731 C   0  0  0  0  0  0  0  0  0  0  0  0
    6.4618    6.9177   23.9029 N   0  0  0  0  0  0  0  0  0  0  0  0
    5.7564    8.0564   24.1005 C   0  0  0  0  0  0  0  0  0  0  0  0
    4.4287    8.0697   24.4617 C   0  0  0  0  0  0  0  0  0  0  0  0
    3.8373    6.8376   24.6247 C   0  0  0  0  0  0  0  0  0  0  0  0
    4.5161    5.6870   24.4309 N   0  0  0  0  0  0  0  0  0  0  0  0
    2.3845    6.7070   24.9859 C   0  0  0  0  0  0  0  0  0  0  0  0
    1.9110    7.9240   25.7918 C   0  0  2  0  0  0  0  0  0  0  0  0
    0.4437    7.8011   26.1644 C   0  0  0  0  0  0  0  0  0  0  0  0
    0.0681    7.8202   27.5185 C   0  0  0  0  0  0  0  0  0  0  0  0
   -1.2728    7.6938   27.8862 C   0  0  0  0  0  0  0  0  0  0  0  0
   -2.2424    7.5468   26.9036 C   0  0  0  0  0  0  0  0  0  0  0  0
   -3.5284    7.4246   27.2570 F   0  0  0  0  0  0  0  0  0  0  0  0
   -1.8966    7.5233   25.5591 C   0  0  0  0  0  0  0  0  0  0  0  0
   -0.5564    7.6498   25.1884 C   0  0  0  0  0  0  0  0  0  0  0  0
    2.2136    9.2197   25.0276 C   0  0  0  0  0  0  0  0  0  0  0  0
    3.6800    9.3198   24.6617 C   0  0  0  0  0  0  0  0  0  0  0  0
    4.2382   10.3967   24.4795 O   0  0  0  0  0  0  0  0  0  0  0  0
    7.0551    1.2806   23.9205 C   0  0  0  0  0  0  0  0  0  0  0  0
    7.8120    0.2177   23.4311 C   0  0  0  0  0  0  0  0  0  0  0  0
    7.2918   -0.9811   23.0160 O   0  0  0  0  0  0  0  0  0  0  0  0
    7.4953   -2.1003   23.8691 C   0  0  0  0  0  0  0  0  0  0  0  0
    9.2063    0.3738   23.3084 C   0  0  0  0  0  0  0  0  0  0  0  0
    9.9626   -0.6768   22.8343 O   0  0  0  0  0  0  0  0  0  0  0  0
   10.9815   -1.0031   23.7784 C   0  0  0  0  0  0  0  0  0  0  0  0
  1  2  1  0
  2  3  1  0
  3  4  2  0
  4  5  1  0
  5  6  1  0
  6  7  2  0
  6  8  1  0
  8  9  1  0
  9 10  2  0
 10 11  1  0
 11 12  2  0
 12 13  1  0
 13 14  2  0
 13 15  1  0
 15 16  1  0
 16 17  1  6
 17 18  2  0
 18 19  1  0
 19 20  2  0
 20 21  1  0
 20 22  1  0
 22 23  2  0
 16 24  1  0
 24 25  1  0
 25 26  2  0
  5 27  2  0
 27 28  1  0
 28 29  1  0
 29 30  1  0
 28 31  2  0
 31 32  1  0
 32 33  1  0
 31  3  1  0
 14  9  1  0
 23 17  1  0
 25 12  1  0
M  END
