
     RDKit          3D

 30 33  0  0  0  0  0  0  0  0999 V2000
    3.1954    2.0876   26.3744 C   0  0  0  0  0  0  0  0  0  0  0  0
    4.1021    2.4689   27.3995 O   0  0  0  0  0  0  0  0  0  0  0  0
    5.4007    2.7140   27.0332 C   0  0  0  0  0  0  0  0  0  0  0  0
    5.9479    3.9808   26.8352 C   0  0  0  0  0  0  0  0  0  0  0  0
    7.2991    4.1089   26.4873 C   0  0  0  0  0  0  0  0  0  0  0  0
    7.8865    5.4417   26.2398 C   0  0  0  0  0  0  0  0  0  0  0  0
    9.0941    5.5102   26.0064 O   0  0  0  0  0  0  0  0  0  0  0  0
    7.1302    6.5868   26.2313 N   0  0  0  0  0  0  0  0  0  0  0  0
    7.5211    7.8930   26.0187 C   0  0  0  0  0  0  0  0  0  0  0  0
    7.6721    8.4594   24.8191 N   0  0  0  0  0  0  0  0  0  0  0  0
    8.0415    9.7280   25.0915 N   0  0  0  0  0  0  0  0  0  0  0  0
    8.2979   10.6382   24.0042 C   0  0  0  0  0  0  0  0  0  0  0  0
    8.1262    9.9992   26.4270 C   0  0  0  0  0  0  0  0  0  0  0  0
    8.4662   11.1677   26.9982 N   0  0  0  0  0  0  0  0  0  0  0  0
    8.4686   11.1693   28.3433 C   0  0  0  0  0  0  0  0  0  0  0  0
    8.8097   12.3446   29.0245 C   0  0  0  0  0  0  0  0  0  0  0  0
    9.1668   13.5861   28.2488 C   0  0  0  0  0  0  0  0  0  0  0  0
    8.8247   12.3888   30.4297 C   0  0  0  0  0  0  0  0  0  0  0  0
    8.5001   11.2617   31.1739 C   0  0  0  0  0  0  0  0  0  0  0  0
    8.1583   10.0835   30.5199 C   0  0  0  0  0  0  0  0  0  0  0  0
    8.1393   10.0261   29.1177 C   0  0  0  0  0  0  0  0  0  0  0  0
    7.7925    8.8295   28.4682 C   0  0  0  0  0  0  0  0  0  0  0  0
    7.7872    8.8210   27.0667 C   0  0  0  0  0  0  0  0  0  0  0  0
    8.0996    2.9811   26.2684 C   0  0  0  0  0  0  0  0  0  0  0  0
    7.5644    1.7064   26.4474 C   0  0  0  0  0  0  0  0  0  0  0  0
    8.2567    0.5359   26.2713 O   0  0  0  0  0  0  0  0  0  0  0  0
    8.6899    0.2300   24.9527 C   0  0  0  0  0  0  0  0  0  0  0  0
    6.2223    1.5850   26.8540 C   0  0  0  0  0  0  0  0  0  0  0  0
    5.6759    0.3277   27.0040 O   0  0  0  0  0  0  0  0  0  0  0  0
    6.3925   -0.3902   28.0064 C   0  0  0  0  0  0  0  0  0  0  0  0
  1  2  1  0
  2  3  1  0
  3  4  2  0
  4  5  1  0
  5  6  1  0
  6  7  2  0
  6  8  1  0
  8  9  1  0
  9 10  2  0
 10 11  1  0
 11 12  1  0
 11 13  1  0
 13 14  2  0
 14 15  1  0
 15 16  2  0
 16 17  1  0
 16 18  1  0
 18 19  2  0
 19 20  1  0
 20 21  2  0
 21 22  1  0
 22 23  2  0
  5 24  2  0
 24 25  1  0
 25 26  1  0
 26 27  1  0
 25 28  2  0
 28 29  1  0
 29 30  1  0
 28  3  1  0
 23  9  1  0
 23 13  1  0
 21 15  1  0
M  END
