
     RDKit          3D

 17 18  0  0  0  0  0  0  0  0999 V2000
    8.7391    2.9258   22.5695 C   0  0  0  0  0  0  0  0  0  0  0  0
    8.3216    2.2192   23.7299 O   0  0  0  0  0  0  0  0  0  0  0  0
    7.7978    2.9525   24.7628 C   0  0  0  0  0  0  0  0  0  0  0  0
    8.4704    3.9726   25.4389 C   0  0  0  0  0  0  0  0  0  0  0  0
    7.8537    4.6728   26.4910 C   0  0  0  0  0  0  0  0  0  0  0  0
    8.5924    5.7328   27.1681 C   0  0  0  0  0  0  0  0  0  0  0  0
    9.4622    6.6001   26.6870 N   0  0  0  0  0  0  0  0  0  0  0  0
    9.8653    7.3848   27.7483 N   0  0  0  0  0  0  0  0  0  0  0  0
    9.2134    6.9387   28.7946 C   0  0  0  0  0  0  0  0  0  0  0  0
    8.3857    5.8947   28.5161 O   0  0  0  0  0  0  0  0  0  0  0  0
    6.5416    4.3334   26.8640 C   0  0  0  0  0  0  0  0  0  0  0  0
    5.8499    3.3159   26.2017 C   0  0  0  0  0  0  0  0  0  0  0  0
    4.5707    2.9198   26.4952 O   0  0  0  0  0  0  0  0  0  0  0  0
    3.9428    3.5093   27.6252 C   0  0  0  0  0  0  0  0  0  0  0  0
    6.4803    2.6460   25.1399 C   0  0  0  0  0  0  0  0  0  0  0  0
    5.8202    1.6131   24.5105 O   0  0  0  0  0  0  0  0  0  0  0  0
    6.3070    0.3621   24.9935 C   0  0  0  0  0  0  0  0  0  0  0  0
  1  2  1  0
  2  3  1  0
  3  4  2  0
  4  5  1  0
  5  6  1  0
  6  7  2  0
  7  8  1  0
  8  9  2  0
  9 10  1  0
  5 11  2  0
 11 12  1  0
 12 13  1  0
 13 14  1  0
 12 15  2  0
 15 16  1  0
 16 17  1  0
 15  3  1  0
 10  6  1  0
M  END
