
     RDKit          3D

 17 18  0  0  0  0  0  0  0  0999 V2000
    7.4470    1.8692   23.4658 C   0  0  0  0  0  0  0  0  0  0  0  0
    8.6873    1.9351   22.5678 C   0  0  1  0  0  0  0  0  0  0  0  0
    8.9204    3.3467   22.0181 C   0  0  0  0  0  0  0  0  0  0  0  0
    9.3920    4.3481   23.0692 C   0  0  0  0  0  0  0  0  0  0  0  0
   10.1202    3.7018   24.2443 C   0  0  0  0  0  0  0  0  0  0  0  0
   10.8057    2.3767   23.8963 C   0  0  2  0  0  0  0  0  0  0  0  0
   12.0573    2.5953   23.0384 C   0  0  0  0  0  0  0  0  0  0  0  0
    9.8892    1.4148   23.2544 N   0  0  0  0  0  0  0  0  0  0  0  0
   10.1835    0.0556   23.4149 C   0  0  0  0  0  0  0  0  0  0  0  0
    9.5040   -0.8538   22.9440 O   0  0  0  0  0  0  0  0  0  0  0  0
   11.3683   -0.3412   24.1999 C   0  0  0  0  0  0  0  0  0  0  0  0
   11.5718    0.1864   25.4796 C   0  0  0  0  0  0  0  0  0  0  0  0
   12.6772   -0.2248   26.2265 C   0  0  0  0  0  0  0  0  0  0  0  0
   13.5562   -1.1715   25.6967 C   0  0  0  0  0  0  0  0  0  0  0  0
   15.0528   -1.7268   26.7098 Br  0  0  0  0  0  0  0  0  0  0  0  0
   13.3373   -1.7198   24.4315 C   0  0  0  0  0  0  0  0  0  0  0  0
   12.2325   -1.3107   23.6825 C   0  0  0  0  0  0  0  0  0  0  0  0
  2  1  1  1
  2  3  1  0
  3  4  1  0
  4  5  1  0
  5  6  1  0
  6  7  1  6
  6  8  1  0
  8  9  1  0
  9 10  2  0
  9 11  1  0
 11 12  2  0
 12 13  1  0
 13 14  2  0
 14 15  1  0
 14 16  1  0
 16 17  2  0
  8  2  1  0
 17 11  1  0
M  END
