
     RDKit          3D

 24 26  0  0  0  0  0  0  0  0999 V2000
   12.2581    5.7913   22.4493 C   0  0  0  0  0  0  0  0  0  0  0  0
   12.2176    4.5130   23.1548 N   0  0  0  0  0  0  0  0  0  0  0  0
   13.5489    3.8834   23.1782 C   0  0  0  0  0  0  0  0  0  0  0  0
   13.5316    2.4930   23.8587 C   0  0  0  0  0  0  0  0  0  0  0  0
   12.5860    1.5458   23.2215 N   0  0  0  0  0  0  0  0  0  0  0  0
   12.5033    0.2203   23.9184 C   0  0  2  0  0  0  0  0  0  0  0  0
   13.8843   -0.2884   24.3975 C   0  0  0  0  0  0  0  0  0  0  0  0
   13.9702   -1.7446   24.8506 C   0  0  0  0  0  0  0  0  0  0  0  0
   12.7185   -2.2844   25.5276 C   0  0  0  0  0  0  0  0  0  0  0  0
   11.6695   -2.7962   24.5346 C   0  0  0  0  0  0  0  0  0  0  0  0
   10.9380   -1.7697   23.7765 N   0  0  0  0  0  0  0  0  0  0  0  0
    9.9617   -2.3912   22.8536 C   0  0  0  0  0  0  0  0  0  0  0  0
    8.5024   -2.3401   23.3218 C   0  0  0  0  0  0  0  0  0  0  0  0
    7.5187   -2.2421   22.1587 C   0  0  0  0  0  0  0  0  0  0  0  0
    7.1209   -0.8957   21.8962 O   0  0  0  0  0  0  0  0  0  0  0  0
    6.2477   -0.7554   20.7773 C   0  0  1  0  0  0  0  0  0  0  0  0
    5.8367    0.7170   20.7129 C   0  0  0  0  0  0  0  0  0  0  0  0
    4.9616    0.9882   19.4959 C   0  0  0  0  0  0  0  0  0  0  0  0
    5.6258    0.4509   18.2335 C   0  0  0  0  0  0  0  0  0  0  0  0
    6.0591   -0.9960   18.4289 C   0  0  0  0  0  0  0  0  0  0  0  0
    6.9090   -1.1195   19.5661 O   0  0  0  0  0  0  0  0  0  0  0  0
   11.8251   -0.8592   23.0148 C   0  0  0  0  0  0  0  0  0  0  0  0
   11.2484    2.2033   23.1994 C   0  0  0  0  0  0  0  0  0  0  0  0
   11.2664    3.5893   22.5118 C   0  0  0  0  0  0  0  0  0  0  0  0
  1  2  1  0
  2  3  1  0
  3  4  1  0
  4  5  1  0
  6  5  1  6
  6  7  1  0
  7  8  1  0
  8  9  1  0
  9 10  1  0
 10 11  1  0
 11 12  1  0
 12 13  1  0
 13 14  1  0
 14 15  1  0
 16 15  1  1
 16 17  1  0
 17 18  1  0
 18 19  1  0
 19 20  1  0
 20 21  1  0
 11 22  1  0
  5 23  1  0
 23 24  1  0
 24  2  1  0
 22  6  1  0
 21 16  1  0
M  END
