
     RDKit          3D

 24 26  0  0  0  0  0  0  0  0999 V2000
    9.2478   -5.1507   28.5105 C   0  0  0  0  0  0  0  0  0  0  0  0
    9.6826   -5.0562   27.1204 N   0  0  0  0  0  0  0  0  0  0  0  0
   11.1385   -4.8517   27.0367 C   0  0  0  0  0  0  0  0  0  0  0  0
   11.6355   -4.6930   25.5803 C   0  0  0  0  0  0  0  0  0  0  0  0
   10.9166   -3.7076   24.7613 N   0  0  0  0  0  0  0  0  0  0  0  0
   11.4748   -2.3411   24.6837 C   0  0  1  0  0  0  0  0  0  0  0  0
   12.8676   -2.1869   25.3214 C   0  0  0  0  0  0  0  0  0  0  0  0
   13.3544   -0.7502   25.4805 C   0  0  0  0  0  0  0  0  0  0  0  0
   13.4142    0.0666   24.1930 C   0  0  0  0  0  0  0  0  0  0  0  0
   12.0309    0.4978   23.6987 C   0  0  0  0  0  0  0  0  0  0  0  0
   11.2822   -0.4658   22.8905 N   0  0  0  0  0  0  0  0  0  0  0  0
    9.8374   -0.1557   22.8491 C   0  0  0  0  0  0  0  0  0  0  0  0
    9.0415   -1.0697   21.9055 C   0  0  0  0  0  0  0  0  0  0  0  0
    7.7179   -0.4323   21.4849 C   0  0  0  0  0  0  0  0  0  0  0  0
    7.0196   -1.3073   20.6053 O   0  0  0  0  0  0  0  0  0  0  0  0
    5.9144   -0.6677   19.9683 C   0  0  2  0  0  0  0  0  0  0  0  0
    6.4259   -0.1003   18.6424 C   0  0  0  0  0  0  0  0  0  0  0  0
    5.3358    0.6860   17.9252 C   0  0  0  0  0  0  0  0  0  0  0  0
    4.7096    1.7072   18.8693 C   0  0  0  0  0  0  0  0  0  0  0  0
    4.2921    1.0466   20.1771 C   0  0  0  0  0  0  0  0  0  0  0  0
    5.3955    0.3814   20.7859 O   0  0  0  0  0  0  0  0  0  0  0  0
   11.5034   -1.8906   23.1891 C   0  0  0  0  0  0  0  0  0  0  0  0
    9.4634   -3.7945   24.9611 C   0  0  0  0  0  0  0  0  0  0  0  0
    8.9823   -3.9668   26.4200 C   0  0  0  0  0  0  0  0  0  0  0  0
  1  2  1  0
  2  3  1  0
  3  4  1  0
  4  5  1  0
  6  5  1  6
  6  7  1  0
  7  8  1  0
  8  9  1  0
  9 10  1  0
 10 11  1  0
 11 12  1  0
 12 13  1  0
 13 14  1  0
 14 15  1  0
 16 15  1  1
 16 17  1  0
 17 18  1  0
 18 19  1  0
 19 20  1  0
 20 21  1  0
 11 22  1  0
  5 23  1  0
 23 24  1  0
 24  2  1  0
 22  6  1  0
 21 16  1  0
M  END
