
     RDKit          3D

 30 34  0  0  0  0  0  0  0  0999 V2000
    7.9945   -0.8935   27.9458 C   0  0  0  0  0  0  0  0  0  0  0  0
    8.8413   -0.9615   26.7288 C   0  0  0  0  0  0  0  0  0  0  0  0
    9.6057   -2.0408   26.5133 N   0  0  0  0  0  0  0  0  0  0  0  0
   10.2579   -1.7646   25.3712 N   0  0  0  0  0  0  0  0  0  0  0  0
   11.1914   -2.7319   24.8421 C   0  0  0  0  0  0  0  0  0  0  0  0
    9.9338   -0.5446   24.8303 C   0  0  0  0  0  0  0  0  0  0  0  0
   10.5306   -0.0370   23.5694 C   0  0  0  0  0  0  0  0  0  0  0  0
    8.9928   -0.0117   25.6889 C   0  0  0  0  0  0  0  0  0  0  0  0
    8.3614    1.2517   25.5216 C   0  0  0  0  0  0  0  0  0  0  0  0
    7.0509    1.5035   25.6883 C   0  0  0  0  0  0  0  0  0  0  0  0
    6.4557    2.8756   25.4914 C   0  0  0  0  0  0  0  0  0  0  0  0
    4.9243    2.6666   25.5310 C   0  0  2  0  0  0  0  0  0  0  0  0
    4.3123    3.1538   26.8766 C   0  0  1  0  0  0  0  0  0  0  0  0
    4.3096    4.6972   26.8984 C   0  0  0  0  0  0  0  0  0  0  0  0
    3.5527    5.2770   28.0464 C   0  0  0  0  0  0  0  0  0  0  0  0
    2.6364    4.6022   28.7590 C   0  0  0  0  0  0  0  0  0  0  0  0
    2.0639    5.2047   30.0221 C   0  0  0  0  0  0  0  0  0  0  0  0
    2.4038    4.3250   31.2317 C   0  0  1  0  0  0  0  0  0  0  0  0
    1.7244    4.8051   32.3936 O   0  0  0  0  0  0  0  0  0  0  0  0
    2.0349    2.8580   31.0024 C   0  0  0  0  0  0  0  0  0  0  0  0
    2.5839    2.3078   29.6770 C   0  0  0  0  0  0  0  0  0  0  0  0
    2.2110    3.1661   28.4328 C   0  0  1  0  0  0  0  0  0  0  0  0
    0.6748    3.1221   28.2139 C   0  0  0  0  0  0  0  0  0  0  0  0
    2.8760    2.6316   27.0947 C   0  0  2  0  0  0  0  0  0  0  0  0
    2.8485    1.0989   26.9771 C   0  0  0  0  0  0  0  0  0  0  0  0
    3.3685    0.6108   25.6305 C   0  0  0  0  0  0  0  0  0  0  0  0
    4.7412    1.1604   25.2049 C   0  0  1  0  0  0  0  0  0  0  0  0
    4.8645    0.9333   23.6717 C   0  0  0  0  0  0  0  0  0  0  0  0
    5.9554    0.4954   25.8988 C   0  0  2  0  0  0  0  0  0  0  0  0
    5.7737    0.3545   27.2962 O   0  0  0  0  0  0  0  0  0  0  0  0
  1  2  1  0
  2  3  2  0
  3  4  1  0
  4  5  1  0
  4  6  1  0
  6  7  1  0
  6  8  2  0
  8  9  1  0
  9 10  2  0
 10 11  1  0
 12 11  1  1
 12 13  1  0
 13 14  1  6
 14 15  1  0
 15 16  2  0
 16 17  1  0
 17 18  1  0
 18 19  1  1
 18 20  1  0
 20 21  1  0
 21 22  1  0
 22 23  1  6
 22 24  1  0
 24 25  1  1
 25 26  1  0
 26 27  1  0
 27 28  1  6
 27 29  1  0
 29 30  1  1
  8  2  1  0
 29 10  1  0
 27 12  1  0
 24 13  1  0
 22 16  1  0
M  END
