
     RDKit          3D

 21 23  0  0  0  0  0  0  0  0999 V2000
    4.7827    6.7089   28.8574 O   0  0  0  0  0  0  0  0  0  0  0  0
    5.7164    6.4166   28.1307 C   0  0  0  0  0  0  0  0  0  0  0  0
    6.7717    5.7260   28.6072 O   0  0  0  0  0  0  0  0  0  0  0  0
    5.8488    6.7158   26.6651 C   0  0  0  0  0  0  0  0  0  0  0  0
    6.9462    7.7676   26.4071 C   0  0  1  0  0  0  0  0  0  0  0  0
    7.8175    7.4233   25.1958 C   0  0  0  0  0  0  0  0  0  0  0  0
    7.0342    7.3731   24.0046 O   0  0  0  0  0  0  0  0  0  0  0  0
    6.3474    8.5492   23.8121 C   0  0  0  0  0  0  0  0  0  0  0  0
    5.9951    8.8063   22.4836 C   0  0  0  0  0  0  0  0  0  0  0  0
    5.3363    9.9845   22.1532 C   0  0  0  0  0  0  0  0  0  0  0  0
    5.0324   10.9031   23.1529 C   0  0  0  0  0  0  0  0  0  0  0  0
    5.3674   10.6348   24.4865 C   0  0  0  0  0  0  0  0  0  0  0  0
    6.0017    9.4383   24.8515 C   0  0  0  0  0  0  0  0  0  0  0  0
    6.3360    9.1145   26.2184 N   0  0  0  0  0  0  0  0  0  0  0  0
    5.8094    9.8256   27.3143 C   0  0  0  0  0  0  0  0  0  0  0  0
    5.8271    9.4311   28.4776 O   0  0  0  0  0  0  0  0  0  0  0  0
    5.2279   11.1449   27.0347 C   0  0  0  0  0  0  0  0  0  0  0  0
    5.9820   12.3571   26.8775 C   0  0  0  0  0  0  0  0  0  0  0  0
    5.1851   13.4550   26.6423 C   0  0  0  0  0  0  0  0  0  0  0  0
    3.5246   13.0523   26.6574 S   0  0  0  0  0  0  0  0  0  0  0  0
    3.8697   11.4101   26.9913 C   0  0  0  0  0  0  0  0  0  0  0  0
  1  2  2  0
  2  3  1  0
  2  4  1  0
  5  4  1  6
  5  6  1  0
  6  7  1  0
  7  8  1  0
  8  9  2  0
  9 10  1  0
 10 11  2  0
 11 12  1  0
 12 13  2  0
 13 14  1  0
 14 15  1  0
 15 16  2  0
 15 17  1  0
 17 18  1  0
 18 19  2  0
 19 20  1  0
 20 21  1  0
 14  5  1  0
 21 17  2  0
 13  8  1  0
M  END
