
     RDKit          3D

 30 32  0  0  0  0  0  0  0  0999 V2000
    8.3585   -3.6978   27.7922 C   0  0  0  0  0  0  0  0  0  0  0  0
    8.5092   -3.0491   26.5302 O   0  0  0  0  0  0  0  0  0  0  0  0
    9.2798   -3.7429   25.6532 C   0  0  0  0  0  0  0  0  0  0  0  0
    9.0169   -4.8298   25.1616 O   0  0  0  0  0  0  0  0  0  0  0  0
   10.4285   -2.9103   25.2248 C   0  0  0  0  0  0  0  0  0  0  0  0
   11.5556   -2.9782   26.0718 C   0  0  0  0  0  0  0  0  0  0  0  0
   12.7657   -2.3806   25.7128 C   0  0  0  0  0  0  0  0  0  0  0  0
   13.9092   -2.4151   26.4665 O   0  0  0  0  0  0  0  0  0  0  0  0
   14.5408   -3.6786   26.6336 C   0  0  0  0  0  0  0  0  0  0  0  0
   12.8539   -1.7279   24.4766 C   0  0  0  0  0  0  0  0  0  0  0  0
   14.0386   -1.1480   24.0910 O   0  0  0  0  0  0  0  0  0  0  0  0
   14.4250   -0.1581   25.0442 C   0  0  0  0  0  0  0  0  0  0  0  0
   11.7220   -1.6023   23.6597 C   0  0  0  0  0  0  0  0  0  0  0  0
   11.7777   -0.9376   22.4509 O   0  0  0  0  0  0  0  0  0  0  0  0
   12.5671    0.2505   22.5627 C   0  0  0  0  0  0  0  0  0  0  0  0
   10.4921   -2.1811   24.0269 C   0  0  0  0  0  0  0  0  0  0  0  0
    9.4228   -1.9489   23.1266 N   0  0  0  0  0  0  0  0  0  0  0  0
    8.6714   -0.7864   23.0541 C   0  0  0  0  0  0  0  0  0  0  0  0
    8.8768    0.2181   23.7300 O   0  0  0  0  0  0  0  0  0  0  0  0
    7.5744   -0.8452   21.9641 C   0  0  0  0  0  0  0  0  0  0  0  0
    6.9434   -2.2485   21.9403 C   0  0  0  0  0  0  0  0  0  0  0  0
    5.6690   -2.5311   22.4557 C   0  0  0  0  0  0  0  0  0  0  0  0
    5.1577   -3.8327   22.4363 C   0  0  0  0  0  0  0  0  0  0  0  0
    5.9087   -4.8758   21.9029 C   0  0  0  0  0  0  0  0  0  0  0  0
    7.1731   -4.6198   21.3848 C   0  0  0  0  0  0  0  0  0  0  0  0
    7.6844   -3.3208   21.4032 C   0  0  0  0  0  0  0  0  0  0  0  0
    6.6094    0.3458   22.1760 C   0  0  0  0  0  0  0  0  0  0  0  0
    6.0250    0.6760   20.8023 C   0  0  0  0  0  0  0  0  0  0  0  0
    6.9449    0.0183   19.7795 C   0  0  0  0  0  0  0  0  0  0  0  0
    8.1456   -0.4831   20.5738 C   0  0  0  0  0  0  0  0  0  0  0  0
  1  2  1  0
  2  3  1  0
  3  4  2  0
  3  5  1  0
  5  6  2  0
  6  7  1  0
  7  8  1  0
  8  9  1  0
  7 10  2  0
 10 11  1  0
 11 12  1  0
 10 13  1  0
 13 14  1  0
 14 15  1  0
 13 16  2  0
 16 17  1  0
 17 18  1  0
 18 19  2  0
 18 20  1  0
 20 21  1  0
 21 22  2  0
 22 23  1  0
 23 24  2  0
 24 25  1  0
 25 26  2  0
 20 27  1  0
 27 28  1  0
 28 29  1  0
 29 30  1  0
 16  5  1  0
 30 20  1  0
 26 21  1  0
M  END
