
     RDKit          3D

 24 26  0  0  0  0  0  0  0  0999 V2000
    5.5649   -2.8452   18.9024 C   0  0  0  0  0  0  0  0  0  0  0  0
    5.2222   -1.7550   19.7474 O   0  0  0  0  0  0  0  0  0  0  0  0
    6.1962   -1.2783   20.5857 C   0  0  0  0  0  0  0  0  0  0  0  0
    6.7253   -1.9798   21.6745 C   0  0  0  0  0  0  0  0  0  0  0  0
    7.7275   -1.4067   22.4646 C   0  0  0  0  0  0  0  0  0  0  0  0
    8.2081   -0.1275   22.1671 C   0  0  0  0  0  0  0  0  0  0  0  0
    9.2439    0.4451   23.0444 C   0  0  0  0  0  0  0  0  0  0  0  0
    8.9271    1.4359   23.6992 O   0  0  0  0  0  0  0  0  0  0  0  0
   10.4903   -0.1797   23.1241 N   0  0  0  0  0  0  0  0  0  0  0  0
   10.8453   -1.3894   22.3804 C   0  0  0  0  0  0  0  0  0  0  0  0
   11.8189   -2.2679   23.1592 C   0  0  0  0  0  0  0  0  0  0  0  0
   13.0237   -1.4706   23.6508 C   0  0  0  0  0  0  0  0  0  0  0  0
   12.5915   -0.2467   24.4711 C   0  0  1  0  0  0  0  0  0  0  0  0
   11.9979   -0.6109   25.8296 C   0  0  0  0  0  0  0  0  0  0  0  0
   12.2438    0.6358   26.6571 C   0  0  0  0  0  0  0  0  0  0  0  0
   13.4029    1.2799   26.1104 O   0  0  0  0  0  0  0  0  0  0  0  0
   13.7881    0.5935   24.9111 C   0  0  0  0  0  0  0  0  0  0  0  0
   11.6101    0.6085   23.6432 C   0  0  0  0  0  0  0  0  0  0  0  0
    7.6661    0.6019   21.1071 C   0  0  0  0  0  0  0  0  0  0  0  0
    8.1377    1.8578   20.8177 O   0  0  0  0  0  0  0  0  0  0  0  0
    7.4445    2.8296   21.6043 C   0  0  0  0  0  0  0  0  0  0  0  0
    6.6907    0.0069   20.2957 C   0  0  0  0  0  0  0  0  0  0  0  0
    6.1608    0.7232   19.2468 O   0  0  0  0  0  0  0  0  0  0  0  0
    6.9239    0.4856   18.0648 C   0  0  0  0  0  0  0  0  0  0  0  0
  1  2  1  0
  2  3  1  0
  3  4  2  0
  4  5  1  0
  5  6  2  0
  6  7  1  0
  7  8  2  0
  7  9  1  0
  9 10  1  0
 10 11  1  0
 11 12  1  0
 13 12  1  6
 13 14  1  0
 14 15  1  0
 15 16  1  0
 16 17  1  0
 13 18  1  0
  6 19  1  0
 19 20  1  0
 20 21  1  0
 19 22  2  0
 22 23  1  0
 23 24  1  0
 22  3  1  0
 18  9  1  0
 17 13  1  0
M  END
