
     RDKit          3D

 32 35  0  0  0  0  0  0  0  0999 V2000
   11.4115   -4.0732   24.7149 C   0  0  0  0  0  0  0  0  0  0  0  0
   10.7576   -2.9778   24.0903 O   0  0  0  0  0  0  0  0  0  0  0  0
    9.7390   -2.3645   24.7744 C   0  0  0  0  0  0  0  0  0  0  0  0
    8.6415   -3.0256   25.3425 C   0  0  0  0  0  0  0  0  0  0  0  0
    7.6307   -2.3290   26.0289 C   0  0  0  0  0  0  0  0  0  0  0  0
    6.5147   -2.9978   26.6184 N   0  0  0  0  0  0  0  0  0  0  0  0
    5.6121   -3.7827   25.9425 C   0  0  0  0  0  0  0  0  0  0  0  0
    5.6202   -4.1379   24.7718 O   0  0  0  0  0  0  0  0  0  0  0  0
    4.5797   -4.2438   26.9623 C   0  0  1  0  0  0  0  0  0  0  0  0
    4.4649   -5.7631   26.9779 C   0  0  0  0  0  0  0  0  0  0  0  0
    3.6140   -6.2461   28.1425 C   0  0  0  0  0  0  0  0  0  0  0  0
    4.1316   -6.7090   29.1591 O   0  0  0  0  0  0  0  0  0  0  0  0
    2.2327   -6.1870   27.9764 N   0  0  0  0  0  0  0  0  0  0  0  0
    1.3846   -6.6429   29.0751 C   0  0  0  0  0  0  0  0  0  0  0  0
    0.1551   -7.3832   28.5569 C   0  0  0  0  0  0  0  0  0  0  0  0
   -0.5773   -6.5720   27.5204 C   0  0  0  0  0  0  0  0  0  0  0  0
   -1.9371   -6.8068   27.2759 C   0  0  0  0  0  0  0  0  0  0  0  0
   -2.6144   -6.0762   26.3008 C   0  0  0  0  0  0  0  0  0  0  0  0
   -1.9377   -5.1131   25.5573 C   0  0  0  0  0  0  0  0  0  0  0  0
   -0.5805   -4.8833   25.7838 C   0  0  0  0  0  0  0  0  0  0  0  0
    0.1153   -5.6137   26.7601 C   0  0  0  0  0  0  0  0  0  0  0  0
    1.5865   -5.3405   26.9736 C   0  0  0  0  0  0  0  0  0  0  0  0
    5.1237   -3.7686   28.2656 N   0  0  0  0  0  0  0  0  0  0  0  0
    6.1544   -3.0785   27.9175 C   0  0  0  0  0  0  0  0  0  0  0  0
    6.8297   -2.4372   28.8747 O   0  0  0  0  0  0  0  0  0  0  0  0
    7.7536   -0.9289   26.1201 C   0  0  0  0  0  0  0  0  0  0  0  0
    8.8307   -0.2415   25.5484 C   0  0  0  0  0  0  0  0  0  0  0  0
    9.0040    1.1179   25.6040 O   0  0  0  0  0  0  0  0  0  0  0  0
   10.1793    1.5946   26.2482 C   0  0  0  0  0  0  0  0  0  0  0  0
    9.8319   -0.9723   24.8984 C   0  0  0  0  0  0  0  0  0  0  0  0
   10.8797   -0.3076   24.3020 O   0  0  0  0  0  0  0  0  0  0  0  0
   10.3802    0.6102   23.3309 C   0  0  0  0  0  0  0  0  0  0  0  0
  1  2  1  0
  2  3  1  0
  3  4  2  0
  4  5  1  0
  5  6  1  0
  6  7  1  0
  7  8  2  0
  7  9  1  0
  9 10  1  1
 10 11  1  0
 11 12  2  0
 11 13  1  0
 13 14  1  0
 14 15  1  0
 15 16  1  0
 16 17  2  0
 17 18  1  0
 18 19  2  0
 19 20  1  0
 20 21  2  0
 21 22  1  0
  9 23  1  0
 23 24  2  0
 24 25  1  0
  5 26  2  0
 26 27  1  0
 27 28  1  0
 28 29  1  0
 27 30  2  0
 30 31  1  0
 31 32  1  0
 30  3  1  0
 24  6  1  0
 22 13  1  0
 21 16  1  0
M  END
