
     RDKit          3D

 20 21  0  0  0  0  0  0  0  0999 V2000
    4.4501    2.7249   20.0797 C   0  0  0  0  0  0  0  0  0  0  0  0
    4.7500    3.4049   21.2924 O   0  0  0  0  0  0  0  0  0  0  0  0
    5.8191    2.9552   22.0224 C   0  0  0  0  0  0  0  0  0  0  0  0
    5.9333    1.6630   22.5436 C   0  0  0  0  0  0  0  0  0  0  0  0
    7.0597    1.2917   23.2955 C   0  0  0  0  0  0  0  0  0  0  0  0
    7.1173   -0.0975   23.8307 C   0  0  0  0  0  0  0  0  0  0  0  0
    6.0752   -0.6619   24.1424 O   0  0  0  0  0  0  0  0  0  0  0  0
    8.3741   -0.6721   23.8874 N   0  0  0  0  0  0  0  0  0  0  0  0
    8.6850   -1.9124   24.3305 C   0  0  0  0  0  0  0  0  0  0  0  0
    9.8112   -2.1084   24.9278 N   0  0  0  0  0  0  0  0  0  0  0  0
    9.8685   -3.4888   25.2363 O   0  0  0  0  0  0  0  0  0  0  0  0
    8.5366   -4.0161   25.1292 C   0  0  2  0  0  0  0  0  0  0  0  0
    8.5991   -5.4590   24.6659 C   0  0  0  0  0  0  0  0  0  0  0  0
    7.8270   -3.1068   24.1520 C   0  0  0  0  0  0  0  0  0  0  0  0
    8.0676    2.2261   23.5548 C   0  0  0  0  0  0  0  0  0  0  0  0
    7.9626    3.5153   23.0294 C   0  0  0  0  0  0  0  0  0  0  0  0
    9.3539    4.7496   23.4124 Br  0  0  0  0  0  0  0  0  0  0  0  0
    6.8593    3.8746   22.2440 C   0  0  0  0  0  0  0  0  0  0  0  0
    6.7663    5.1628   21.7730 O   0  0  0  0  0  0  0  0  0  0  0  0
    6.2710    6.0387   22.7861 C   0  0  0  0  0  0  0  0  0  0  0  0
  1  2  1  0
  2  3  1  0
  3  4  2  0
  4  5  1  0
  5  6  1  0
  6  7  2  0
  6  8  1  0
  8  9  1  0
  9 10  2  0
 10 11  1  0
 11 12  1  0
 12 13  1  6
 12 14  1  0
  5 15  2  0
 15 16  1  0
 16 17  1  0
 16 18  2  0
 18 19  1  0
 19 20  1  0
 18  3  1  0
 14  9  1  0
M  END
