
     RDKit          3D

 21 23  0  0  0  0  0  0  0  0999 V2000
    8.1615   -1.4906   23.0988 N   0  0  0  0  0  0  0  0  0  0  0  0
    8.2698   -0.8717   24.3580 C   0  0  0  0  0  0  0  0  0  0  0  0
    7.1828   -0.1335   24.8547 C   0  0  0  0  0  0  0  0  0  0  0  0
    6.0107   -0.1739   24.2005 F   0  0  0  0  0  0  0  0  0  0  0  0
    7.2685    0.6303   26.0149 C   0  0  0  0  0  0  0  0  0  0  0  0
    8.4811    0.7033   26.6882 C   0  0  0  0  0  0  0  0  0  0  0  0
    8.6076    1.6502   28.1179 Cl  0  0  0  0  0  0  0  0  0  0  0  0
    9.5957    0.0201   26.2101 C   0  0  0  0  0  0  0  0  0  0  0  0
    9.4908   -0.7651   25.0503 C   0  0  0  0  0  0  0  0  0  0  0  0
   10.7283   -1.4421   24.5837 C   0  0  0  0  0  0  0  0  0  0  0  0
   11.1389   -2.3976   25.2340 O   0  0  0  0  0  0  0  0  0  0  0  0
   11.3541   -0.9553   23.4199 N   0  0  0  0  0  0  0  0  0  0  0  0
   12.5784   -1.6426   22.9780 C   0  0  0  0  0  0  0  0  0  0  0  0
   13.7934   -1.2330   23.8211 C   0  0  0  0  0  0  0  0  0  0  0  0
   14.1479    0.5569   23.7202 S   0  0  0  0  0  0  0  0  0  0  0  0
   12.4564    1.2154   24.0674 C   0  0  1  0  0  0  0  0  0  0  0  0
   12.4368    2.7230   23.7904 C   0  0  0  0  0  0  0  0  0  0  0  0
   11.1221    3.2685   23.9318 O   0  0  0  0  0  0  0  0  0  0  0  0
   10.1911    2.6933   23.0175 C   0  0  0  0  0  0  0  0  0  0  0  0
   10.0344    1.2042   23.2859 C   0  0  0  0  0  0  0  0  0  0  0  0
   11.4006    0.5082   23.1938 C   0  0  2  0  0  0  0  0  0  0  0  0
  1  2  1  0
  2  3  2  0
  3  4  1  0
  3  5  1  0
  5  6  2  0
  6  7  1  0
  6  8  1  0
  8  9  2  0
  9 10  1  0
 10 11  2  0
 10 12  1  0
 12 13  1  0
 13 14  1  0
 14 15  1  0
 15 16  1  0
 16 17  1  6
 17 18  1  0
 18 19  1  0
 19 20  1  0
 21 20  1  1
  9  2  1  0
 21 12  1  0
 21 16  1  0
M  END
