
     RDKit          3D

 28 30  0  0  0  0  0  0  0  0999 V2000
   10.0333   -2.4789   24.6060 C   0  0  0  0  0  0  0  0  0  0  0  0
   10.0022   -2.8641   23.2275 O   0  0  0  0  0  0  0  0  0  0  0  0
    8.7555   -2.6251   22.7066 C   0  0  0  0  0  0  0  0  0  0  0  0
    7.7183   -3.4840   23.0674 C   0  0  0  0  0  0  0  0  0  0  0  0
    6.4299   -3.2739   22.5666 C   0  0  0  0  0  0  0  0  0  0  0  0
    5.4370   -4.2118   22.9221 N   0  0  0  0  0  0  0  0  0  0  0  0
    5.0340   -4.5619   24.1919 C   0  0  0  0  0  0  0  0  0  0  0  0
    5.5074   -4.1019   25.2277 O   0  0  0  0  0  0  0  0  0  0  0  0
    4.0146   -5.5343   24.2096 N   0  0  0  0  0  0  0  0  0  0  0  0
    3.5776   -5.9873   22.8881 C   0  0  0  0  0  0  0  0  0  0  0  0
    2.2454   -6.7207   22.9302 C   0  0  0  0  0  0  0  0  0  0  0  0
    2.3012   -7.8685   23.9369 C   0  0  0  0  0  0  0  0  0  0  0  0
    1.0182   -8.4931   24.0484 O   0  0  0  0  0  0  0  0  0  0  0  0
    0.8817   -9.5464   24.9084 C   0  0  0  0  0  0  0  0  0  0  0  0
    1.8828  -10.0898   25.7059 C   0  0  0  0  0  0  0  0  0  0  0  0
    1.5611  -11.1674   26.5172 C   0  0  0  0  0  0  0  0  0  0  0  0
    0.3352  -11.7252   26.5793 N   0  0  0  0  0  0  0  0  0  0  0  0
   -0.6128  -11.1904   25.7792 C   0  0  0  0  0  0  0  0  0  0  0  0
   -0.3874  -10.1174   24.9352 C   0  0  0  0  0  0  0  0  0  0  0  0
    2.6475   -7.2942   25.3119 C   0  0  0  0  0  0  0  0  0  0  0  0
    3.9733   -6.5483   25.2705 C   0  0  0  0  0  0  0  0  0  0  0  0
    6.1959   -2.1951   21.7014 C   0  0  0  0  0  0  0  0  0  0  0  0
    7.2244   -1.3048   21.3624 C   0  0  0  0  0  0  0  0  0  0  0  0
    7.0845   -0.2229   20.5312 O   0  0  0  0  0  0  0  0  0  0  0  0
    6.9434   -0.4850   19.1398 C   0  0  0  0  0  0  0  0  0  0  0  0
    8.5061   -1.5182   21.8896 C   0  0  0  0  0  0  0  0  0  0  0  0
    9.5439   -0.6819   21.5543 O   0  0  0  0  0  0  0  0  0  0  0  0
    9.5147    0.4747   22.3904 C   0  0  0  0  0  0  0  0  0  0  0  0
  1  2  1  0
  2  3  1  0
  3  4  2  0
  4  5  1  0
  5  6  1  0
  6  7  1  0
  7  8  2  0
  7  9  1  0
  9 10  1  0
 10 11  1  0
 11 12  1  0
 12 13  1  0
 13 14  1  0
 14 15  2  0
 15 16  1  0
 16 17  2  0
 17 18  1  0
 18 19  2  0
 12 20  1  0
 20 21  1  0
  5 22  2  0
 22 23  1  0
 23 24  1  0
 24 25  1  0
 23 26  2  0
 26 27  1  0
 27 28  1  0
 26  3  1  0
 21  9  1  0
 19 14  1  0
M  END
