
     RDKit          3D

 29 32  0  0  0  0  0  0  0  0999 V2000
    8.6240   -2.0512   21.4842 C   0  0  0  0  0  0  0  0  0  0  0  0
    9.1816   -2.3683   22.7524 O   0  0  0  0  0  0  0  0  0  0  0  0
    8.3483   -2.3143   23.8399 C   0  0  0  0  0  0  0  0  0  0  0  0
    7.5809   -1.2053   24.2027 C   0  0  0  0  0  0  0  0  0  0  0  0
    6.7546   -1.2446   25.3381 C   0  0  0  0  0  0  0  0  0  0  0  0
    5.9581   -0.0735   25.7018 C   0  0  0  0  0  0  0  0  0  0  0  0
    6.4638    0.9341   26.5194 N   0  0  0  0  0  0  0  0  0  0  0  0
    5.4577    1.7565   26.5855 C   0  0  0  0  0  0  0  0  0  0  0  0
    5.1498    3.2533   27.3625 S   0  0  0  0  0  0  0  0  0  0  0  0
    3.5331    3.2626   26.6803 C   0  0  0  0  0  0  0  0  0  0  0  0
    2.5972    4.2085   26.8398 C   0  0  0  0  0  0  0  0  0  0  0  0
    2.7679    5.4321   27.6335 C   0  0  0  0  0  0  0  0  0  0  0  0
    4.0587    5.7563   28.0761 C   0  0  0  0  0  0  0  0  0  0  0  0
    4.2819    6.9131   28.8260 C   0  0  0  0  0  0  0  0  0  0  0  0
    3.2191    7.7567   29.1417 C   0  0  0  0  0  0  0  0  0  0  0  0
    1.9299    7.4454   28.7097 C   0  0  0  0  0  0  0  0  0  0  0  0
    1.7027    6.2881   27.9587 C   0  0  0  0  0  0  0  0  0  0  0  0
   -0.0821    5.9274   27.4121 Br  0  0  0  0  0  0  0  0  0  0  0  0
    3.2553    2.0567   25.8422 C   0  0  0  0  0  0  0  0  0  0  0  0
    2.2453    1.7419   25.2398 O   0  0  0  0  0  0  0  0  0  0  0  0
    4.4095    1.3048   25.8715 N   0  0  0  0  0  0  0  0  0  0  0  0
    4.6873    0.1275   25.2863 N   0  0  0  0  0  0  0  0  0  0  0  0
    6.7036   -2.4134   26.1165 C   0  0  0  0  0  0  0  0  0  0  0  0
    7.4626   -3.5338   25.7720 C   0  0  0  0  0  0  0  0  0  0  0  0
    7.4784   -4.7141   26.4698 O   0  0  0  0  0  0  0  0  0  0  0  0
    8.5091   -4.8912   27.4325 C   0  0  0  0  0  0  0  0  0  0  0  0
    8.2670   -3.4794   24.6211 C   0  0  0  0  0  0  0  0  0  0  0  0
    9.0520   -4.5644   24.2952 O   0  0  0  0  0  0  0  0  0  0  0  0
    8.2766   -5.5223   23.5769 C   0  0  0  0  0  0  0  0  0  0  0  0
  1  2  1  0
  2  3  1  0
  3  4  2  0
  4  5  1  0
  5  6  1  0
  6  7  1  0
  7  8  2  0
  8  9  1  0
  9 10  1  0
 10 11  2  3
 11 12  1  0
 12 13  2  0
 13 14  1  0
 14 15  2  0
 15 16  1  0
 16 17  2  0
 17 18  1  0
 10 19  1  0
 19 20  2  0
 19 21  1  0
 21 22  1  0
  5 23  2  0
 23 24  1  0
 24 25  1  0
 25 26  1  0
 24 27  2  0
 27 28  1  0
 28 29  1  0
 27  3  1  0
 22  6  2  0
 21  8  1  0
 17 12  1  0
M  END
