
     RDKit          3D

 21 23  0  0  0  0  0  0  0  0999 V2000
    7.9715   -2.8403   27.1646 C   0  0  0  0  0  0  0  0  0  0  0  0
    8.6056   -2.0804   26.0628 C   0  0  0  0  0  0  0  0  0  0  0  0
    8.5895   -0.7418   26.0643 N   0  0  0  0  0  0  0  0  0  0  0  0
    9.2967   -0.3574   24.9407 O   0  0  0  0  0  0  0  0  0  0  0  0
    9.7230   -1.4611   24.2704 C   0  0  0  0  0  0  0  0  0  0  0  0
   10.5600   -1.2090   23.0817 C   0  0  0  0  0  0  0  0  0  0  0  0
    9.2689   -2.5900   24.9177 C   0  0  0  0  0  0  0  0  0  0  0  0
    9.5114   -3.9686   24.5642 C   0  0  0  0  0  0  0  0  0  0  0  0
   10.5835   -4.5047   24.8340 O   0  0  0  0  0  0  0  0  0  0  0  0
    8.4828   -4.6532   23.9425 N   0  0  0  0  0  0  0  0  0  0  0  0
    8.5176   -6.0430   23.5047 C   0  0  0  0  0  0  0  0  0  0  0  0
    7.1938   -6.2692   22.7920 C   0  0  0  0  0  0  0  0  0  0  0  0
    6.8590   -4.8881   22.2405 C   0  0  0  0  0  0  0  0  0  0  0  0
    7.3769   -3.9245   23.3192 C   0  0  1  0  0  0  0  0  0  0  0  0
    6.3260   -3.5295   24.3499 C   0  0  0  0  0  0  0  0  0  0  0  0
    6.0147   -2.1946   24.5349 C   0  0  0  0  0  0  0  0  0  0  0  0
    5.0882   -1.9109   25.5100 C   0  0  0  0  0  0  0  0  0  0  0  0
    4.4947   -2.8499   26.2670 N   0  0  0  0  0  0  0  0  0  0  0  0
    4.8676   -4.1207   26.0381 C   0  0  0  0  0  0  0  0  0  0  0  0
    4.2107   -5.1936   26.8477 C   0  0  0  0  0  0  0  0  0  0  0  0
    5.7612   -4.5017   25.1049 N   0  0  0  0  0  0  0  0  0  0  0  0
  1  2  1  0
  2  3  2  0
  3  4  1  0
  4  5  1  0
  5  6  1  0
  5  7  2  0
  7  8  1  0
  8  9  2  0
  8 10  1  0
 10 11  1  0
 11 12  1  0
 12 13  1  0
 13 14  1  0
 14 15  1  1
 15 16  2  0
 16 17  1  0
 17 18  2  0
 18 19  1  0
 19 20  1  0
 19 21  2  0
  7  2  1  0
 14 10  1  0
 21 15  1  0
M  END
