
     RDKit          3D

 26 29  0  0  0  0  0  0  0  0999 V2000
    7.7523   -2.1341   26.4485 C   0  0  0  0  0  0  0  0  0  0  0  0
    7.0361   -1.7390   25.2142 C   0  0  0  0  0  0  0  0  0  0  0  0
    6.3528   -2.6445   24.5039 N   0  0  0  0  0  0  0  0  0  0  0  0
    5.7769   -1.9430   23.4602 O   0  0  0  0  0  0  0  0  0  0  0  0
    6.1273   -0.6310   23.5430 C   0  0  0  0  0  0  0  0  0  0  0  0
    5.5333    0.2587   22.5298 C   0  0  0  0  0  0  0  0  0  0  0  0
    6.9681   -0.4543   24.6184 C   0  0  0  0  0  0  0  0  0  0  0  0
    7.5644    0.7764   25.0786 C   0  0  0  0  0  0  0  0  0  0  0  0
    7.4642    1.1061   26.2570 O   0  0  0  0  0  0  0  0  0  0  0  0
    8.2832    1.5261   24.1503 N   0  0  0  0  0  0  0  0  0  0  0  0
    8.9704    0.9520   22.9907 C   0  0  1  0  0  0  0  0  0  0  0  0
    8.1406    0.9402   21.7198 C   0  0  0  0  0  0  0  0  0  0  0  0
    7.3177    2.0096   21.3358 C   0  0  0  0  0  0  0  0  0  0  0  0
    6.5913    1.9632   20.1433 C   0  0  0  0  0  0  0  0  0  0  0  0
    6.6763    0.8470   19.3158 C   0  0  0  0  0  0  0  0  0  0  0  0
    7.4879   -0.2237   19.6794 C   0  0  0  0  0  0  0  0  0  0  0  0
    8.2165   -0.1764   20.8694 C   0  0  0  0  0  0  0  0  0  0  0  0
   10.2511    1.7819   22.8517 C   0  0  0  0  0  0  0  0  0  0  0  0
    9.8688    3.1632   23.4015 C   0  0  1  0  0  0  0  0  0  0  0  0
    8.9120    2.7897   24.5666 C   0  0  1  0  0  0  0  0  0  0  0  0
    7.8890    3.9046   24.8277 C   0  0  0  0  0  0  0  0  0  0  0  0
    8.4731    5.1433   25.4987 C   0  0  0  0  0  0  0  0  0  0  0  0
    9.6472    5.7910   24.7673 C   0  0  0  0  0  0  0  0  0  0  0  0
   10.9196    4.9389   24.7911 C   0  0  0  0  0  0  0  0  0  0  0  0
   11.0713    3.9448   23.7238 N   0  0  0  0  0  0  0  0  0  0  0  0
   11.6540    4.5469   22.5206 C   0  0  0  0  0  0  0  0  0  0  0  0
  1  2  1  0
  2  3  2  0
  3  4  1  0
  4  5  1  0
  5  6  1  0
  5  7  2  0
  7  8  1  0
  8  9  2  0
  8 10  1  0
 10 11  1  0
 11 12  1  6
 12 13  2  0
 13 14  1  0
 14 15  2  0
 15 16  1  0
 16 17  2  0
 11 18  1  0
 19 18  1  1
 19 20  1  0
 20 21  1  6
 21 22  1  0
 22 23  1  0
 23 24  1  0
 24 25  1  0
 25 26  1  0
  7  2  1  0
 20 10  1  0
 17 12  1  0
 25 19  1  0
M  END
