
     RDKit          3D

 34 36  0  0  0  0  0  0  0  0999 V2000
   12.9868    6.3263   23.3435 O   0  0  0  0  0  0  0  0  0  0  0  0
   12.4933    5.0410   22.9305 C   0  0  2  0  0  0  0  0  0  0  0  0
   11.0358    4.8765   23.4155 C   0  0  0  0  0  0  0  0  0  0  0  0
   10.1018    5.8406   22.8110 N   0  0  0  0  0  0  0  0  0  0  0  0
    8.7184    5.6164   23.2238 C   0  0  0  0  0  0  0  0  0  0  0  0
    7.8515    6.7963   22.8493 C   0  0  0  0  0  0  0  0  0  0  0  0
    7.2218    6.8542   21.5991 C   0  0  0  0  0  0  0  0  0  0  0  0
    6.4268    7.9504   21.2554 C   0  0  0  0  0  0  0  0  0  0  0  0
    6.2644    9.0029   22.1533 C   0  0  0  0  0  0  0  0  0  0  0  0
    6.8973    8.9628   23.3942 C   0  0  0  0  0  0  0  0  0  0  0  0
    7.6940    7.8690   23.7387 C   0  0  0  0  0  0  0  0  0  0  0  0
   13.4064    3.9470   23.4999 C   0  0  0  0  0  0  0  0  0  0  0  0
   13.0730    2.7020   22.8722 O   0  0  0  0  0  0  0  0  0  0  0  0
   13.5774    1.5810   23.5990 C   0  0  0  0  0  0  0  0  0  0  0  0
   12.6983    0.3558   23.2947 C   0  0  0  0  0  0  0  0  0  0  0  0
   13.5435   -0.9200   23.1604 C   0  0  0  0  0  0  0  0  0  0  0  0
   14.0606   -1.4318   24.5046 C   0  0  0  0  0  0  0  0  0  0  0  0
   12.9393   -1.6318   25.5386 C   0  0  0  0  0  0  0  0  0  0  0  0
   12.0476   -2.8520   25.2243 C   0  0  0  0  0  0  0  0  0  0  0  0
   11.9804   -3.7735   26.3129 O   0  0  0  0  0  0  0  0  0  0  0  0
   11.2048   -4.9489   26.0519 C   0  0  0  0  0  0  0  0  0  0  0  0
    9.8485   -4.8479   26.7639 C   0  0  2  0  0  0  0  0  0  0  0  0
   10.0483   -4.9431   28.1846 O   0  0  0  0  0  0  0  0  0  0  0  0
    8.9131   -5.9832   26.3143 C   0  0  0  0  0  0  0  0  0  0  0  0
    7.9774   -5.4910   25.2887 N   0  0  0  0  0  0  0  0  0  0  0  0
    8.5291   -5.6175   23.9394 C   0  0  0  0  0  0  0  0  0  0  0  0
    7.6458   -4.9992   22.8802 C   0  0  0  0  0  0  0  0  0  0  0  0
    6.7130   -5.7888   22.1885 C   0  0  0  0  0  0  0  0  0  0  0  0
    5.8815   -5.2232   21.2199 C   0  0  0  0  0  0  0  0  0  0  0  0
    5.9714   -3.8597   20.9357 C   0  0  0  0  0  0  0  0  0  0  0  0
    6.8908   -3.0628   21.6187 C   0  0  0  0  0  0  0  0  0  0  0  0
    7.7255   -3.6296   22.5860 C   0  0  0  0  0  0  0  0  0  0  0  0
   12.1000   -0.3513   25.6790 C   0  0  0  0  0  0  0  0  0  0  0  0
   11.5804    0.1713   24.3375 C   0  0  0  0  0  0  0  0  0  0  0  0
  2  1  1  1
  2  3  1  0
  3  4  1  0
  4  5  1  0
  5  6  1  0
  6  7  2  0
  7  8  1  0
  8  9  2  0
  9 10  1  0
 10 11  2  0
  2 12  1  0
 12 13  1  0
 13 14  1  0
 14 15  1  0
 15 16  1  0
 16 17  1  0
 17 18  1  0
 18 19  1  0
 19 20  1  0
 20 21  1  0
 21 22  1  0
 22 23  1  1
 22 24  1  0
 24 25  1  0
 25 26  1  0
 26 27  1  0
 27 28  2  0
 28 29  1  0
 29 30  2  0
 30 31  1  0
 31 32  2  0
 18 33  1  0
 33 34  1  0
 11  6  1  0
 34 15  1  0
 32 27  1  0
M  END
