
     RDKit          3D

 34 36  0  0  0  0  0  0  0  0999 V2000
   14.2107    4.6769   24.0194 O   0  0  0  0  0  0  0  0  0  0  0  0
   13.1896    5.1292   23.1131 C   0  0  2  0  0  0  0  0  0  0  0  0
   12.1509    5.9293   23.9263 C   0  0  0  0  0  0  0  0  0  0  0  0
   10.9306    6.2269   23.1540 N   0  0  0  0  0  0  0  0  0  0  0  0
    9.9561    7.0166   23.9154 C   0  0  0  0  0  0  0  0  0  0  0  0
    8.6521    7.1412   23.1598 C   0  0  0  0  0  0  0  0  0  0  0  0
    8.1942    6.1019   22.3345 C   0  0  0  0  0  0  0  0  0  0  0  0
    6.9910    6.2247   21.6358 C   0  0  0  0  0  0  0  0  0  0  0  0
    6.2297    7.3849   21.7566 C   0  0  0  0  0  0  0  0  0  0  0  0
    6.6598    8.4156   22.5938 C   0  0  0  0  0  0  0  0  0  0  0  0
    7.8627    8.2946   23.2927 C   0  0  0  0  0  0  0  0  0  0  0  0
   12.5271    3.9255   22.4236 C   0  0  0  0  0  0  0  0  0  0  0  0
   13.1255    2.6673   22.7578 O   0  0  0  0  0  0  0  0  0  0  0  0
   12.2384    1.7669   23.4220 C   0  0  0  0  0  0  0  0  0  0  0  0
   12.9370    0.4100   23.5880 C   0  0  0  0  0  0  0  0  0  0  0  0
   13.4435    0.1893   25.0219 C   0  0  0  0  0  0  0  0  0  0  0  0
   14.1376   -1.1659   25.1610 C   0  0  0  0  0  0  0  0  0  0  0  0
   13.2607   -2.3460   24.7119 C   0  0  0  0  0  0  0  0  0  0  0  0
   12.1489   -2.6770   25.7265 C   0  0  0  0  0  0  0  0  0  0  0  0
   11.9773   -4.0742   25.9660 O   0  0  0  0  0  0  0  0  0  0  0  0
   10.7200   -4.4924   26.5070 C   0  0  0  0  0  0  0  0  0  0  0  0
    9.9680   -5.5212   25.6428 C   0  0  1  0  0  0  0  0  0  0  0  0
    9.8111   -6.7693   26.3435 O   0  0  0  0  0  0  0  0  0  0  0  0
    8.5610   -4.9946   25.2818 C   0  0  0  0  0  0  0  0  0  0  0  0
    8.5799   -4.0490   24.1533 N   0  0  0  0  0  0  0  0  0  0  0  0
    7.2362   -3.6913   23.6851 C   0  0  0  0  0  0  0  0  0  0  0  0
    7.2420   -2.7765   22.4816 C   0  0  0  0  0  0  0  0  0  0  0  0
    6.1803   -2.7931   21.5651 C   0  0  0  0  0  0  0  0  0  0  0  0
    6.1829   -1.9373   20.4614 C   0  0  0  0  0  0  0  0  0  0  0  0
    7.2434   -1.0542   20.2634 C   0  0  0  0  0  0  0  0  0  0  0  0
    8.3046   -1.0282   21.1664 C   0  0  0  0  0  0  0  0  0  0  0  0
    8.3027   -1.8830   22.2697 C   0  0  0  0  0  0  0  0  0  0  0  0
   12.6865   -2.0954   23.3087 C   0  0  0  0  0  0  0  0  0  0  0  0
   12.0080   -0.7338   23.1629 C   0  0  0  0  0  0  0  0  0  0  0  0
  2  1  1  1
  2  3  1  0
  3  4  1  0
  4  5  1  0
  5  6  1  0
  6  7  2  0
  7  8  1  0
  8  9  2  0
  9 10  1  0
 10 11  2  0
  2 12  1  0
 12 13  1  0
 13 14  1  0
 14 15  1  0
 15 16  1  0
 16 17  1  0
 17 18  1  0
 18 19  1  0
 19 20  1  0
 20 21  1  0
 21 22  1  0
 22 23  1  1
 22 24  1  0
 24 25  1  0
 25 26  1  0
 26 27  1  0
 27 28  2  0
 28 29  1  0
 29 30  2  0
 30 31  1  0
 31 32  2  0
 18 33  1  0
 33 34  1  0
 11  6  1  0
 34 15  1  0
 32 27  1  0
M  END
