
     RDKit          3D

 22 24  0  0  0  0  0  0  0  0999 V2000
    8.3713    6.8085   30.3935 C   0  0  0  0  0  0  0  0  0  0  0  0
    7.1906    6.3484   29.6221 C   0  0  0  0  0  0  0  0  0  0  0  0
    6.0142    6.9729   29.7529 N   0  0  0  0  0  0  0  0  0  0  0  0
    5.1798    6.2656   28.9650 N   0  0  0  0  0  0  0  0  0  0  0  0
    3.7815    6.6319   28.9168 C   0  0  0  0  0  0  0  0  0  0  0  0
    5.7989    5.2663   28.2555 C   0  0  0  0  0  0  0  0  0  0  0  0
    5.1185    4.3847   27.3337 C   0  0  0  0  0  0  0  0  0  0  0  0
    4.1568    3.7245   27.7231 O   0  0  0  0  0  0  0  0  0  0  0  0
    5.5839    4.3626   25.9999 N   0  0  0  0  0  0  0  0  0  0  0  0
    4.7762    3.8330   24.9245 C   0  0  0  0  0  0  0  0  0  0  0  0
    3.6358    3.0479   25.1768 C   0  0  0  0  0  0  0  0  0  0  0  0
    2.8524    2.5371   24.1365 C   0  0  0  0  0  0  0  0  0  0  0  0
    3.2099    2.7907   22.8249 C   0  0  0  0  0  0  0  0  0  0  0  0
    2.4611    2.3074   21.8256 F   0  0  0  0  0  0  0  0  0  0  0  0
    4.3481    3.5270   22.5355 C   0  0  0  0  0  0  0  0  0  0  0  0
    5.1509    4.0312   23.5758 C   0  0  0  0  0  0  0  0  0  0  0  0
    6.3911    4.7903   23.1919 C   0  0  0  0  0  0  0  0  0  0  0  0
    7.3908    4.7908   24.3307 C   0  0  0  0  0  0  0  0  0  0  0  0
    6.7253    5.2322   25.6312 C   0  0  1  0  0  0  0  0  0  0  0  0
    6.2950    6.7069   25.5965 C   0  0  0  0  0  0  0  0  0  0  0  0
    7.1036    5.2695   28.7112 C   0  0  0  0  0  0  0  0  0  0  0  0
    8.3691    4.2061   28.3172 Cl  0  0  0  0  0  0  0  0  0  0  0  0
  1  2  1  0
  2  3  2  0
  3  4  1  0
  4  5  1  0
  4  6  1  0
  6  7  1  0
  7  8  2  0
  7  9  1  0
  9 10  1  0
 10 11  2  0
 11 12  1  0
 12 13  2  0
 13 14  1  0
 13 15  1  0
 15 16  2  0
 16 17  1  0
 17 18  1  0
 18 19  1  0
 19 20  1  6
  6 21  2  0
 21 22  1  0
 21  2  1  0
 19  9  1  0
 16 10  1  0
M  END
