
     RDKit          3D

 16 17  0  0  0  0  0  0  0  0999 V2000
    8.9216    1.7807   25.1987 C   0  0  0  0  0  0  0  0  0  0  0  0
    9.9148    2.7005   24.6925 N   0  0  0  0  0  0  0  0  0  0  0  0
    9.9778    3.9532   25.1924 N   0  0  0  0  0  0  0  0  0  0  0  0
   10.9315    4.5338   24.4597 C   0  0  0  0  0  0  0  0  0  0  0  0
   11.4997    3.6437   23.5372 C   0  0  0  0  0  0  0  0  0  0  0  0
   12.9355    4.1222   22.1513 I   0  0  0  0  0  0  0  0  0  0  0  0
   10.8639    2.4373   23.7353 C   0  0  0  0  0  0  0  0  0  0  0  0
   11.0010    1.1624   23.0834 C   0  0  0  0  0  0  0  0  0  0  0  0
   10.1301    0.7574   22.3161 O   0  0  0  0  0  0  0  0  0  0  0  0
   12.1241    0.3853   23.3966 N   0  0  0  0  0  0  0  0  0  0  0  0
   13.1578    0.8011   24.3463 C   0  0  0  0  0  0  0  0  0  0  0  0
   13.8143   -0.3173   25.1573 C   0  0  0  0  0  0  0  0  0  0  0  0
   12.8173   -1.2673   25.8186 C   0  0  0  0  0  0  0  0  0  0  0  0
   12.3883   -2.4134   24.9025 C   0  0  0  0  0  0  0  0  0  0  0  0
   11.5486   -2.0004   23.6954 C   0  0  0  0  0  0  0  0  0  0  0  0
   12.2085   -0.9477   22.8077 C   0  0  0  0  0  0  0  0  0  0  0  0
  1  2  1  0
  2  3  1  0
  3  4  2  0
  4  5  1  0
  5  6  1  0
  5  7  2  0
  7  8  1  0
  8  9  2  0
  8 10  1  0
 10 11  1  0
 11 12  1  0
 12 13  1  0
 13 14  1  0
 14 15  1  0
 15 16  1  0
  7  2  1  0
 16 10  1  0
M  END
