
     RDKit          3D

 23 25  0  0  0  0  0  0  0  0999 V2000
    9.0459   -1.0145   24.0972 C   0  0  0  0  0  0  0  0  0  0  0  0
   10.4681   -0.6930   23.7903 C   0  0  0  0  0  0  0  0  0  0  0  0
   11.1854   -1.5890   23.1109 N   0  0  0  0  0  0  0  0  0  0  0  0
   12.7368   -1.0369   22.9605 S   0  0  0  0  0  0  0  0  0  0  0  0
   12.4852    0.4448   23.7711 C   0  0  0  0  0  0  0  0  0  0  0  0
   13.5985    1.4092   23.9730 C   0  0  0  0  0  0  0  0  0  0  0  0
   11.1556    0.5186   24.1553 C   0  0  0  0  0  0  0  0  0  0  0  0
   10.5926    1.6429   24.8825 C   0  0  0  0  0  0  0  0  0  0  0  0
   10.1992    1.4993   26.0382 O   0  0  0  0  0  0  0  0  0  0  0  0
   10.5268    2.8727   24.2197 N   0  0  0  0  0  0  0  0  0  0  0  0
    9.9902    4.0998   24.8069 C   0  0  0  0  0  0  0  0  0  0  0  0
    8.4761    4.2220   24.6796 C   0  0  0  0  0  0  0  0  0  0  0  0
    7.9680    4.1766   23.2353 C   0  0  0  0  0  0  0  0  0  0  0  0
    7.9853    2.7908   22.7461 N   0  0  0  0  0  0  0  0  0  0  0  0
    6.8925    2.4988   21.8881 C   0  0  0  0  0  0  0  0  0  0  0  0
    6.7892    1.2297   21.3258 C   0  0  0  0  0  0  0  0  0  0  0  0
    5.7292    0.9296   20.4740 C   0  0  0  0  0  0  0  0  0  0  0  0
    4.7933    1.9128   20.2064 C   0  0  0  0  0  0  0  0  0  0  0  0
    3.6323    1.6516   19.3019 C   0  0  0  0  0  0  0  0  0  0  0  0
    4.8998    3.1372   20.7569 N   0  0  0  0  0  0  0  0  0  0  0  0
    5.9514    3.4238   21.6003 N   0  0  0  0  0  0  0  0  0  0  0  0
    9.2399    2.2888   22.1319 C   0  0  0  0  0  0  0  0  0  0  0  0
   10.5391    2.8281   22.7605 C   0  0  0  0  0  0  0  0  0  0  0  0
  1  2  1  0
  2  3  2  0
  3  4  1  0
  4  5  1  0
  5  6  1  0
  5  7  2  0
  7  8  1  0
  8  9  2  0
  8 10  1  0
 10 11  1  0
 11 12  1  0
 12 13  1  0
 13 14  1  0
 14 15  1  0
 15 16  2  0
 16 17  1  0
 17 18  2  0
 18 19  1  0
 18 20  1  0
 20 21  2  0
 14 22  1  0
 22 23  1  0
  7  2  1  0
 23 10  1  0
 21 15  1  0
M  END
