
     RDKit          3D

 24 27  0  0  0  0  0  0  0  0999 V2000
    8.1060    4.3260   28.5275 C   0  0  0  0  0  0  0  0  0  0  0  0
    8.6029    3.8156   27.2997 O   0  0  0  0  0  0  0  0  0  0  0  0
    8.3262    4.5837   26.1040 C   0  0  2  0  0  0  0  0  0  0  0  0
    6.9000    4.2903   25.6076 C   0  0  0  0  0  0  0  0  0  0  0  0
    7.0205    2.8718   25.0547 C   0  0  0  0  0  0  0  0  0  0  0  0
    8.3774    2.7907   24.5349 N   0  0  0  0  0  0  0  0  0  0  0  0
    8.9690    1.7065   23.9148 C   0  0  0  0  0  0  0  0  0  0  0  0
   10.1488    1.6909   23.5664 O   0  0  0  0  0  0  0  0  0  0  0  0
    8.1887    0.4743   23.7340 C   0  0  0  0  0  0  0  0  0  0  0  0
    6.9184    0.5615   23.1380 C   0  0  0  0  0  0  0  0  0  0  0  0
    6.1281   -0.5778   22.9781 C   0  0  0  0  0  0  0  0  0  0  0  0
    6.5682   -1.8305   23.4197 C   0  0  0  0  0  0  0  0  0  0  0  0
    7.8244   -1.8833   24.0317 C   0  0  0  0  0  0  0  0  0  0  0  0
    8.5291   -2.9200   24.5894 N   0  0  0  0  0  0  0  0  0  0  0  0
    9.7156   -2.4275   25.0701 C   0  0  0  0  0  0  0  0  0  0  0  0
   10.7129   -3.2866   25.7488 C   0  0  0  0  0  0  0  0  0  0  0  0
    9.8115   -1.1353   24.8443 N   0  0  0  0  0  0  0  0  0  0  0  0
    8.6449   -0.7693   24.2042 C   0  0  0  0  0  0  0  0  0  0  0  0
    9.1729    3.9512   24.9570 C   0  0  1  0  0  0  0  0  0  0  0  0
    9.4038    4.8680   23.7485 C   0  0  0  0  0  0  0  0  0  0  0  0
    9.8466    6.2631   24.1571 C   0  0  1  0  0  0  0  0  0  0  0  0
    9.9736    7.0675   22.9892 O   0  0  0  0  0  0  0  0  0  0  0  0
    8.8159    6.8956   25.0823 C   0  0  0  0  0  0  0  0  0  0  0  0
    8.6339    6.0688   26.3449 C   0  0  0  0  0  0  0  0  0  0  0  0
  1  2  1  0
  3  2  1  1
  3  4  1  0
  4  5  1  0
  5  6  1  0
  6  7  1  0
  7  8  2  0
  7  9  1  0
  9 10  2  0
 10 11  1  0
 11 12  2  0
 12 13  1  0
 13 14  1  0
 14 15  1  0
 15 16  1  0
 15 17  2  0
 17 18  1  0
  6 19  1  0
 19 20  1  6
 20 21  1  0
 21 22  1  6
 21 23  1  0
 23 24  1  0
 19  3  1  0
 24  3  1  0
 18  9  1  0
 18 13  2  0
M  END
