
     RDKit          3D

 26 29  0  0  0  0  0  0  0  0999 V2000
    1.7843   -0.5933   29.8626 C   0  0  0  0  0  0  0  0  0  0  0  0
    1.0918   -1.8320   29.2810 C   0  0  2  0  0  0  0  0  0  0  0  0
   -0.3460   -1.4972   28.9225 C   0  0  0  0  0  0  0  0  0  0  0  0
   -0.6786   -1.0103   27.6521 C   0  0  0  0  0  0  0  0  0  0  0  0
   -1.9969   -0.6731   27.3656 C   0  0  0  0  0  0  0  0  0  0  0  0
   -2.3061   -0.2101   26.1472 F   0  0  0  0  0  0  0  0  0  0  0  0
   -2.9963   -0.7992   28.3234 C   0  0  0  0  0  0  0  0  0  0  0  0
   -2.6768   -1.2754   29.5943 C   0  0  0  0  0  0  0  0  0  0  0  0
   -1.3568   -1.6342   29.8925 C   0  0  0  0  0  0  0  0  0  0  0  0
   -0.9624   -2.1393   31.2529 C   0  0  0  0  0  0  0  0  0  0  0  0
    0.0713   -3.2559   31.1190 C   0  0  0  0  0  0  0  0  0  0  0  0
    1.1882   -2.9764   30.2110 N   0  0  0  0  0  0  0  0  0  0  0  0
    2.2318   -3.9084   30.2128 C   0  0  0  0  0  0  0  0  0  0  0  0
    2.2451   -4.9027   30.9372 O   0  0  0  0  0  0  0  0  0  0  0  0
    3.3916   -3.6950   29.3247 C   0  0  0  0  0  0  0  0  0  0  0  0
    4.5738   -3.3048   29.9819 C   0  0  0  0  0  0  0  0  0  0  0  0
    5.7203   -3.0064   29.2534 C   0  0  0  0  0  0  0  0  0  0  0  0
    5.6921   -3.1075   27.8691 C   0  0  0  0  0  0  0  0  0  0  0  0
    4.5237   -3.5239   27.2213 C   0  0  0  0  0  0  0  0  0  0  0  0
    3.3412   -3.8449   27.9220 C   0  0  0  0  0  0  0  0  0  0  0  0
    2.2690   -4.3101   27.1549 N   0  0  0  0  0  0  0  0  0  0  0  0
    2.4013   -4.4450   25.6908 C   0  0  0  0  0  0  0  0  0  0  0  0
    1.0014   -4.5663   25.0644 C   0  0  0  0  0  0  0  0  0  0  0  0
    0.2746   -5.6783   25.6178 O   0  0  0  0  0  0  0  0  0  0  0  0
    0.1218   -5.5137   27.0372 C   0  0  0  0  0  0  0  0  0  0  0  0
    1.4813   -5.4104   27.7498 C   0  0  0  0  0  0  0  0  0  0  0  0
  2  1  1  1
  2  3  1  0
  3  4  2  0
  4  5  1  0
  5  6  1  0
  5  7  2  0
  7  8  1  0
  8  9  2  0
  9 10  1  0
 10 11  1  0
 11 12  1  0
 12 13  1  0
 13 14  2  0
 13 15  1  0
 15 16  2  0
 16 17  1  0
 17 18  2  0
 18 19  1  0
 19 20  2  0
 20 21  1  0
 21 22  1  0
 22 23  1  0
 23 24  1  0
 24 25  1  0
 25 26  1  0
 12  2  1  0
 20 15  1  0
 26 21  1  0
  9  3  1  0
M  END
