
     RDKit          3D

 24 26  0  0  0  0  0  0  0  0999 V2000
    5.5565   -4.2284   29.1109 C   0  0  0  0  0  0  0  0  0  0  0  0
    4.2838   -3.6214   28.5378 C   0  0  0  0  0  0  0  0  0  0  0  0
    4.5505   -2.5843   27.4430 C   0  0  0  0  0  0  0  0  0  0  0  0
    5.5191   -1.5087   27.8697 C   0  0  0  0  0  0  0  0  0  0  0  0
    5.1512   -0.7782   28.9544 N   0  0  0  0  0  0  0  0  0  0  0  0
    6.0239    0.1475   29.3896 C   0  0  0  0  0  0  0  0  0  0  0  0
    7.2208    0.4205   28.8488 N   0  0  0  0  0  0  0  0  0  0  0  0
    7.5520   -0.3235   27.7725 C   0  0  0  0  0  0  0  0  0  0  0  0
    6.7223   -1.2788   27.2237 C   0  0  0  0  0  0  0  0  0  0  0  0
    7.1746   -2.0152   26.0448 C   0  0  0  0  0  0  0  0  0  0  0  0
    7.7602   -3.0783   26.2236 O   0  0  0  0  0  0  0  0  0  0  0  0
    6.9295   -1.4730   24.7998 N   0  0  0  0  0  0  0  0  0  0  0  0
    6.2372   -0.2002   24.6864 C   0  0  0  0  0  0  0  0  0  0  0  0
    6.0764    0.0333   23.1877 C   0  0  0  0  0  0  0  0  0  0  0  0
    7.3167   -0.6607   22.5961 C   0  0  2  0  0  0  0  0  0  0  0  0
    8.5156    0.0911   22.8952 O   0  0  0  0  0  0  0  0  0  0  0  0
    8.7587    1.2541   22.1165 C   0  0  0  0  0  0  0  0  0  0  0  0
    7.2336   -0.9567   21.0935 C   0  0  0  0  0  0  0  0  0  0  0  0
    6.2917   -2.0915   20.7246 C   0  0  0  0  0  0  0  0  0  0  0  0
    6.6164   -3.3625   21.5058 C   0  0  2  0  0  0  0  0  0  0  0  0
    5.6798   -4.3573   21.0845 O   0  0  0  0  0  0  0  0  0  0  0  0
    6.0783   -5.6855   21.3998 C   0  0  0  0  0  0  0  0  0  0  0  0
    6.4837   -3.0917   23.0012 C   0  0  0  0  0  0  0  0  0  0  0  0
    7.3855   -1.9452   23.4756 C   0  0  2  0  0  0  0  0  0  0  0  0
  1  2  1  0
  2  3  1  0
  3  4  1  0
  4  5  2  0
  5  6  1  0
  6  7  2  0
  7  8  1  0
  8  9  2  0
  9 10  1  0
 10 11  2  0
 10 12  1  0
 12 13  1  0
 13 14  1  0
 14 15  1  0
 15 16  1  6
 16 17  1  0
 15 18  1  0
 18 19  1  0
 19 20  1  0
 20 21  1  6
 21 22  1  0
 20 23  1  0
 24 23  1  6
  9  4  1  0
 24 12  1  0
 24 15  1  0
M  END
