
     RDKit          3D

 25 28  0  0  0  0  0  0  0  0999 V2000
    5.1689    5.6677   24.5693 C   0  0  0  0  0  0  0  0  0  0  0  0
    5.1165    4.6329   23.5137 C   0  0  0  0  0  0  0  0  0  0  0  0
    3.9015    4.4365   22.9191 O   0  0  0  0  0  0  0  0  0  0  0  0
    4.0949    3.4936   21.9716 C   0  0  0  0  0  0  0  0  0  0  0  0
    5.4010    3.0644   21.9439 C   0  0  0  0  0  0  0  0  0  0  0  0
    6.0730    3.7849   22.9711 C   0  0  0  0  0  0  0  0  0  0  0  0
    7.4718    3.7588   23.3598 C   0  0  0  0  0  0  0  0  0  0  0  0
    8.1509    4.7801   23.2894 O   0  0  0  0  0  0  0  0  0  0  0  0
    7.9992    2.5384   23.7905 N   0  0  0  0  0  0  0  0  0  0  0  0
    7.2000    1.3135   23.8595 C   0  0  0  0  0  0  0  0  0  0  0  0
    8.0583    0.0634   23.6873 C   0  0  0  0  0  0  0  0  0  0  0  0
    9.2635    0.0714   24.6250 C   0  0  0  0  0  0  0  0  0  0  0  0
   10.0692    1.3786   24.5241 C   0  0  2  0  0  0  0  0  0  0  0  0
   10.9014    1.4768   23.2498 C   0  0  0  0  0  0  0  0  0  0  0  0
   12.1595    0.9380   23.6749 N   0  0  0  0  0  0  0  0  0  0  0  0
   13.3030    0.9019   22.7975 C   0  0  0  0  0  0  0  0  0  0  0  0
   12.2722    1.0457   25.0403 C   0  0  0  0  0  0  0  0  0  0  0  0
   13.2853    0.9007   25.7032 O   0  0  0  0  0  0  0  0  0  0  0  0
   11.0575    1.3778   25.5766 O   0  0  0  0  0  0  0  0  0  0  0  0
    9.1425    2.5871   24.6989 C   0  0  0  0  0  0  0  0  0  0  0  0
    5.8290    2.0908   20.9578 C   0  0  0  0  0  0  0  0  0  0  0  0
    6.9906    1.7014   20.8715 O   0  0  0  0  0  0  0  0  0  0  0  0
    4.7239    1.5073   20.0713 C   0  0  0  0  0  0  0  0  0  0  0  0
    3.5779    2.5007   19.8032 C   0  0  0  0  0  0  0  0  0  0  0  0
    2.9777    3.0769   21.0978 C   0  0  0  0  0  0  0  0  0  0  0  0
  1  2  1  0
  2  3  1  0
  3  4  1  0
  4  5  2  0
  5  6  1  0
  6  7  1  0
  7  8  2  0
  7  9  1  0
  9 10  1  0
 10 11  1  0
 11 12  1  0
 13 12  1  6
 13 14  1  0
 14 15  1  0
 15 16  1  0
 15 17  1  0
 17 18  2  0
 17 19  1  0
 13 20  1  0
  5 21  1  0
 21 22  2  0
 21 23  1  0
 23 24  1  0
 24 25  1  0
  6  2  2  0
 20  9  1  0
 25  4  1  0
 19 13  1  0
M  END
