
     RDKit          3D

 11 11  0  0  0  0  0  0  0  0999 V2000
   14.1861   -0.0502   25.0167 O   0  0  0  0  0  0  0  0  0  0  0  0
   13.7510   -0.8289   24.1937 C   0  0  0  0  0  0  0  0  0  0  0  0
   14.1428   -0.8472   22.9095 O   0  0  0  0  0  0  0  0  0  0  0  0
   12.7487   -1.8683   24.4286 C   0  0  0  0  0  0  0  0  0  0  0  0
   11.5331   -1.8145   23.7431 C   0  0  0  0  0  0  0  0  0  0  0  0
   11.0823   -0.4475   22.5131 Br  0  0  0  0  0  0  0  0  0  0  0  0
   10.6131   -2.8231   23.9825 C   0  0  0  0  0  0  0  0  0  0  0  0
   10.8275   -3.8516   24.8353 N   0  0  0  0  0  0  0  0  0  0  0  0
   12.0186   -3.8766   25.4785 C   0  0  0  0  0  0  0  0  0  0  0  0
   13.0090   -2.9186   25.3125 C   0  0  0  0  0  0  0  0  0  0  0  0
   14.7804   -3.1325   26.3913 I   0  0  0  0  0  0  0  0  0  0  0  0
  1  2  2  0
  2  3  1  0
  2  4  1  0
  4  5  2  0
  5  6  1  0
  5  7  1  0
  7  8  2  0
  8  9  1  0
  9 10  2  0
 10 11  1  0
 10  4  1  0
M  END
