
     RDKit          3D

 33 37  0  0  0  0  0  0  0  0999 V2000
   11.5205    1.3570   23.1358 C   0  0  0  0  0  0  0  0  0  0  0  0
   11.2952    0.1004   22.5080 O   0  0  0  0  0  0  0  0  0  0  0  0
   11.0002   -0.9561   23.3322 C   0  0  0  0  0  0  0  0  0  0  0  0
    9.7098   -1.2744   23.7751 C   0  0  0  0  0  0  0  0  0  0  0  0
    9.4670   -2.3670   24.6271 C   0  0  0  0  0  0  0  0  0  0  0  0
    8.1406   -2.7015   25.0678 N   0  0  0  0  0  0  0  0  0  0  0  0
    7.7013   -2.5623   26.3648 C   0  0  0  0  0  0  0  0  0  0  0  0
    8.2553   -2.0306   27.3185 O   0  0  0  0  0  0  0  0  0  0  0  0
    6.3506   -3.1821   26.4963 C   0  0  0  0  0  0  0  0  0  0  0  0
    5.8307   -3.2552   25.0709 C   0  0  2  0  0  0  0  0  0  0  0  0
    5.0365   -4.4953   24.8547 N   0  0  0  0  0  0  0  0  0  0  0  0
    3.9695   -4.6168   25.8955 C   0  0  0  0  0  0  0  0  0  0  0  0
    3.2117   -5.9688   25.8521 C   0  0  0  0  0  0  0  0  0  0  0  0
    2.8159   -6.2797   24.4566 C   0  0  0  0  0  0  0  0  0  0  0  0
    1.8830   -7.2069   23.9248 C   0  0  0  0  0  0  0  0  0  0  0  0
    0.9969   -8.1443   24.4865 C   0  0  0  0  0  0  0  0  0  0  0  0
    0.2048   -8.9112   23.6328 C   0  0  0  0  0  0  0  0  0  0  0  0
   -0.6425   -9.8062   24.1593 F   0  0  0  0  0  0  0  0  0  0  0  0
    0.2704   -8.7730   22.2518 C   0  0  0  0  0  0  0  0  0  0  0  0
    1.1444   -7.8505   21.6704 C   0  0  0  0  0  0  0  0  0  0  0  0
    1.9386   -7.0815   22.5318 C   0  0  0  0  0  0  0  0  0  0  0  0
    2.8791   -6.1137   22.2420 N   0  0  0  0  0  0  0  0  0  0  0  0
    3.4094   -5.6235   23.4024 C   0  0  0  0  0  0  0  0  0  0  0  0
    4.4415   -4.5503   23.4911 C   0  0  0  0  0  0  0  0  0  0  0  0
    7.1159   -3.1396   24.2474 C   0  0  0  0  0  0  0  0  0  0  0  0
    7.1607   -3.3409   23.0385 O   0  0  0  0  0  0  0  0  0  0  0  0
   10.5785   -3.1355   25.0266 C   0  0  0  0  0  0  0  0  0  0  0  0
   11.8817   -2.8263   24.6155 C   0  0  0  0  0  0  0  0  0  0  0  0
   13.0042   -3.5318   24.9665 O   0  0  0  0  0  0  0  0  0  0  0  0
   13.0645   -4.0684   26.2811 C   0  0  0  0  0  0  0  0  0  0  0  0
   12.0828   -1.7218   23.7793 C   0  0  0  0  0  0  0  0  0  0  0  0
   13.3493   -1.4336   23.3234 O   0  0  0  0  0  0  0  0  0  0  0  0
   13.3804   -1.5121   21.8995 C   0  0  0  0  0  0  0  0  0  0  0  0
  1  2  1  0
  2  3  1  0
  3  4  2  0
  4  5  1  0
  5  6  1  0
  6  7  1  0
  7  8  2  0
  7  9  1  0
  9 10  1  0
 10 11  1  1
 11 12  1  0
 12 13  1  0
 13 14  1  0
 14 15  1  0
 15 16  2  0
 16 17  1  0
 17 18  1  0
 17 19  2  0
 19 20  1  0
 20 21  2  0
 21 22  1  0
 22 23  1  0
 23 24  1  0
 10 25  1  0
 25 26  2  0
  5 27  2  0
 27 28  1  0
 28 29  1  0
 29 30  1  0
 28 31  2  0
 31 32  1  0
 32 33  1  0
 31  3  1  0
 25  6  1  0
 24 11  1  0
 23 14  2  0
 21 15  1  0
M  END
