
     RDKit          3D

 30 32  0  0  0  0  0  0  0  0999 V2000
    0.4864    7.7895   23.3475 C   0  0  0  0  0  0  0  0  0  0  0  0
    0.7357    6.4810   23.8438 O   0  0  0  0  0  0  0  0  0  0  0  0
    0.8567    5.4725   22.9231 C   0  0  0  0  0  0  0  0  0  0  0  0
    2.0713    4.9707   22.4530 C   0  0  0  0  0  0  0  0  0  0  0  0
    2.0803    3.9448   21.4970 C   0  0  0  0  0  0  0  0  0  0  0  0
    3.3550    3.3898   20.9675 C   0  0  0  0  0  0  0  0  0  0  0  0
    4.4086    3.6288   21.5465 O   0  0  0  0  0  0  0  0  0  0  0  0
    3.2506    2.5775   19.8595 N   0  0  0  0  0  0  0  0  0  0  0  0
    4.3951    1.9472   19.2070 C   0  0  0  0  0  0  0  0  0  0  0  0
    5.0533    0.8346   20.0363 C   0  0  0  0  0  0  0  0  0  0  0  0
    6.2774    1.2877   20.6689 N   0  0  0  0  0  0  0  0  0  0  0  0
    6.9548    0.4993   21.5748 C   0  0  0  0  0  0  0  0  0  0  0  0
    6.5477   -0.6218   21.8705 O   0  0  0  0  0  0  0  0  0  0  0  0
    8.1680    1.0867   22.1278 C   0  0  0  0  0  0  0  0  0  0  0  0
    9.4883    0.9273   21.7283 C   0  0  0  0  0  0  0  0  0  0  0  0
   10.3254    1.7104   22.5631 C   0  0  0  0  0  0  0  0  0  0  0  0
   11.7172    1.9254   22.6124 C   0  0  0  0  0  0  0  0  0  0  0  0
   12.2482    2.7838   23.5791 C   0  0  0  0  0  0  0  0  0  0  0  0
   11.4121    3.4235   24.4875 C   0  0  0  0  0  0  0  0  0  0  0  0
   10.0279    3.2228   24.4571 C   0  0  0  0  0  0  0  0  0  0  0  0
    9.5006    2.3568   23.4827 C   0  0  0  0  0  0  0  0  0  0  0  0
    8.2031    1.9618   23.2068 N   0  0  0  0  0  0  0  0  0  0  0  0
    7.0327    2.3977   23.9432 C   0  0  0  0  0  0  0  0  0  0  0  0
    0.8783    3.3926   21.0315 C   0  0  0  0  0  0  0  0  0  0  0  0
   -0.3433    3.8831   21.4919 C   0  0  0  0  0  0  0  0  0  0  0  0
   -1.5695    3.4208   21.0908 O   0  0  0  0  0  0  0  0  0  0  0  0
   -1.6017    2.1661   20.4214 C   0  0  0  0  0  0  0  0  0  0  0  0
   -0.3434    4.9434   22.4149 C   0  0  0  0  0  0  0  0  0  0  0  0
   -1.5422    5.4116   22.9071 O   0  0  0  0  0  0  0  0  0  0  0  0
   -1.6329    5.1371   24.3039 C   0  0  0  0  0  0  0  0  0  0  0  0
  1  2  1  0
  2  3  1  0
  3  4  2  0
  4  5  1  0
  5  6  1  0
  6  7  2  0
  6  8  1  0
  8  9  1  0
  9 10  1  0
 10 11  1  0
 11 12  1  0
 12 13  2  0
 12 14  1  0
 14 15  2  0
 15 16  1  0
 16 17  2  0
 17 18  1  0
 18 19  2  0
 19 20  1  0
 20 21  2  0
 21 22  1  0
 22 23  1  0
  5 24  2  0
 24 25  1  0
 25 26  1  0
 26 27  1  0
 25 28  2  0
 28 29  1  0
 29 30  1  0
 28  3  1  0
 22 14  1  0
 21 16  1  0
M  END
