
     RDKit          3D

 24 25  0  0  0  0  0  0  0  0999 V2000
    4.0373   -6.7397   25.7186 C   0  0  0  0  0  0  0  0  0  0  0  0
    5.2605   -6.2115   26.2139 O   0  0  0  0  0  0  0  0  0  0  0  0
    5.4724   -4.8657   26.0561 C   0  0  0  0  0  0  0  0  0  0  0  0
    4.5829   -3.8706   26.4654 C   0  0  0  0  0  0  0  0  0  0  0  0
    4.8978   -2.5191   26.2612 C   0  0  0  0  0  0  0  0  0  0  0  0
    3.9845   -1.4219   26.6896 C   0  0  0  0  0  0  0  0  0  0  0  0
    2.7695   -1.5730   26.6264 O   0  0  0  0  0  0  0  0  0  0  0  0
    4.5759   -0.2607   27.1210 N   0  0  0  0  0  0  0  0  0  0  0  0
    3.8042    0.8871   27.5666 C   0  0  0  0  0  0  0  0  0  0  0  0
    4.0426    1.1723   29.0899 C   0  0  0  0  0  0  0  0  0  0  0  0
    5.4995    1.4461   29.3354 N   0  0  0  0  0  0  0  0  0  0  0  0
    6.0014    2.6074   28.5851 C   0  0  0  0  0  0  0  0  0  0  0  0
    6.3894    0.3061   29.0807 C   0  0  0  0  0  0  0  0  0  0  0  0
    3.1343    2.3896   29.4688 C   0  0  0  0  0  0  0  0  0  0  0  0
    2.3175    1.9400   30.6728 C   0  0  0  0  0  0  0  0  0  0  0  0
    2.0990    0.4628   30.4060 C   0  0  0  0  0  0  0  0  0  0  0  0
    3.4654   -0.0067   29.9248 C   0  0  0  0  0  0  0  0  0  0  0  0
    6.0922   -2.1603   25.6172 C   0  0  0  0  0  0  0  0  0  0  0  0
    6.9872   -3.1417   25.1908 C   0  0  0  0  0  0  0  0  0  0  0  0
    8.1815   -2.8955   24.5655 O   0  0  0  0  0  0  0  0  0  0  0  0
    9.1543   -2.1473   25.2825 C   0  0  0  0  0  0  0  0  0  0  0  0
    6.6609   -4.4924   25.4038 C   0  0  0  0  0  0  0  0  0  0  0  0
    7.5571   -5.4710   25.0317 O   0  0  0  0  0  0  0  0  0  0  0  0
    8.5088   -5.6770   26.0742 C   0  0  0  0  0  0  0  0  0  0  0  0
  1  2  1  0
  2  3  1  0
  3  4  2  0
  4  5  1  0
  5  6  1  0
  6  7  2  0
  6  8  1  0
  8  9  1  0
  9 10  1  0
 10 11  1  0
 11 12  1  0
 11 13  1  0
 10 14  1  0
 14 15  1  0
 15 16  1  0
 16 17  1  0
  5 18  2  0
 18 19  1  0
 19 20  1  0
 20 21  1  0
 19 22  2  0
 22 23  1  0
 23 24  1  0
 22  3  1  0
 17 10  1  0
M  END
