
     RDKit          3D

 28 32  0  0  0  0  0  0  0  0999 V2000
    6.4797   -1.5892   26.3777 C   0  0  0  0  0  0  0  0  0  0  0  0
    7.7233   -0.7271   26.1368 C   0  0  2  0  0  0  0  0  0  0  0  0
    7.2829    0.5910   25.6922 N   0  0  0  0  0  0  0  0  0  0  0  0
    7.1659    1.6820   26.5286 C   0  0  0  0  0  0  0  0  0  0  0  0
    7.3393    1.6116   27.7435 O   0  0  0  0  0  0  0  0  0  0  0  0
    6.6797    2.9692   25.8211 C   0  0  1  0  0  0  0  0  0  0  0  0
    5.7157    3.7860   26.6857 C   0  0  0  0  0  0  0  0  0  0  0  0
    6.6501    4.7104   27.4579 C   0  0  0  0  0  0  0  0  0  0  0  0
    7.7050    5.0693   26.4225 C   0  0  0  0  0  0  0  0  0  0  0  0
    7.7815    3.9030   25.5526 N   0  0  0  0  0  0  0  0  0  0  0  0
    8.5884    3.7673   24.4422 C   0  0  0  0  0  0  0  0  0  0  0  0
    8.6243    2.7505   23.7566 O   0  0  0  0  0  0  0  0  0  0  0  0
    9.4633    4.8969   24.0849 C   0  0  0  0  0  0  0  0  0  0  0  0
   10.8326    4.6728   23.9288 C   0  0  0  0  0  0  0  0  0  0  0  0
   11.6636    5.7378   23.5843 C   0  0  0  0  0  0  0  0  0  0  0  0
   11.1268    7.0164   23.4129 C   0  0  0  0  0  0  0  0  0  0  0  0
    9.7599    7.2367   23.5924 C   0  0  0  0  0  0  0  0  0  0  0  0
    8.9216    6.1755   23.9303 C   0  0  0  0  0  0  0  0  0  0  0  0
    8.7738   -1.3427   25.1541 C   0  0  0  0  0  0  0  0  0  0  0  0
    9.9348   -2.0089   25.9473 C   0  0  0  0  0  0  0  0  0  0  0  0
   11.0050   -2.5750   24.9992 C   0  0  0  0  0  0  0  0  0  0  0  0
   10.3586   -3.6281   24.0858 C   0  0  0  0  0  0  0  0  0  0  0  0
    9.2331   -2.9853   23.2609 C   0  0  0  0  0  0  0  0  0  0  0  0
    9.8179   -1.8491   22.4088 C   0  0  0  0  0  0  0  0  0  0  0  0
   10.4610   -0.7900   23.3159 C   0  0  0  0  0  0  0  0  0  0  0  0
   11.5809   -1.4381   24.1420 C   0  0  0  0  0  0  0  0  0  0  0  0
    9.3936   -0.2235   24.2668 C   0  0  0  0  0  0  0  0  0  0  0  0
    8.1628   -2.4145   24.2110 C   0  0  0  0  0  0  0  0  0  0  0  0
  2  1  1  6
  2  3  1  0
  3  4  1  0
  4  5  2  0
  6  4  1  1
  6  7  1  0
  7  8  1  0
  8  9  1  0
  9 10  1  0
 10 11  1  0
 11 12  2  0
 11 13  1  0
 13 14  2  0
 14 15  1  0
 15 16  2  0
 16 17  1  0
 17 18  2  0
  2 19  1  0
 19 20  1  0
 20 21  1  0
 21 22  1  0
 22 23  1  0
 23 24  1  0
 24 25  1  0
 25 26  1  0
 25 27  1  0
 23 28  1  0
 10  6  1  0
 18 13  1  0
 27 19  1  0
 28 19  1  0
 26 21  1  0
M  END
