
     RDKit          3D

 33 35  0  0  0  0  0  0  0  0999 V2000
    1.7433    5.6913   21.7659 C   0  0  0  0  0  0  0  0  0  0  0  0
    2.4100    5.6442   20.3937 C   0  0  0  0  0  0  0  0  0  0  0  0
    3.0744    4.3940   20.0137 N   0  0  0  0  0  0  0  0  0  0  0  0
    2.1714    3.2319   19.9991 C   0  0  0  0  0  0  0  0  0  0  0  0
    2.8904    1.9617   19.4842 C   0  0  0  0  0  0  0  0  0  0  0  0
    4.0924    1.6306   20.2840 N   0  0  0  0  0  0  0  0  0  0  0  0
    4.8146    0.4788   19.7191 C   0  0  0  0  0  0  0  0  0  0  0  0
    5.9341   -0.0203   20.6090 C   0  0  0  0  0  0  0  0  0  0  0  0
    7.1184   -0.5175   20.0491 C   0  0  0  0  0  0  0  0  0  0  0  0
    8.1519   -0.9821   20.8662 C   0  0  0  0  0  0  0  0  0  0  0  0
    8.0235   -0.9628   22.2626 C   0  0  0  0  0  0  0  0  0  0  0  0
    9.1612   -1.4389   23.1376 C   0  0  0  0  0  0  0  0  0  0  0  0
   10.4738   -1.1486   22.5607 N   0  0  0  0  0  0  0  0  0  0  0  0
   11.0766    0.1133   22.6732 C   0  0  0  0  0  0  0  0  0  0  0  0
   10.3034    1.2891   22.6899 C   0  0  0  0  0  0  0  0  0  0  0  0
   10.8766    2.5540   22.8758 C   0  0  0  0  0  0  0  0  0  0  0  0
   12.2486    2.6669   23.0824 C   0  0  0  0  0  0  0  0  0  0  0  0
   12.9895    4.2617   23.3147 S   0  0  0  0  0  0  0  0  0  0  0  0
   13.0618    4.8910   22.0164 O   0  0  0  0  0  0  0  0  0  0  0  0
   14.1483    4.1188   24.1664 O   0  0  0  0  0  0  0  0  0  0  0  0
   11.7985    5.0676   24.1716 N   0  0  0  0  0  0  0  0  0  0  0  0
   11.3529    6.3999   23.7527 C   0  0  0  0  0  0  0  0  0  0  0  0
    9.8727    6.3483   23.3936 C   0  0  0  0  0  0  0  0  0  0  0  0
   11.6020    7.3676   24.9051 C   0  0  0  0  0  0  0  0  0  0  0  0
   13.0525    1.5298   23.1268 C   0  0  0  0  0  0  0  0  0  0  0  0
   12.4637    0.2679   22.9290 C   0  0  0  0  0  0  0  0  0  0  0  0
   13.3567   -0.8955   22.9686 N   0  0  0  0  0  0  0  0  0  0  0  0
   13.9888   -1.1818   21.9382 O   0  0  0  0  0  0  0  0  0  0  0  0
   13.4484   -1.5107   24.0406 O   0  0  0  0  0  0  0  0  0  0  0  0
    6.8399   -0.4578   22.8217 C   0  0  0  0  0  0  0  0  0  0  0  0
    5.8045    0.0026   22.0038 C   0  0  0  0  0  0  0  0  0  0  0  0
    4.9803    2.8120   20.3320 C   0  0  0  0  0  0  0  0  0  0  0  0
    4.2563    4.0832   20.8362 C   0  0  0  0  0  0  0  0  0  0  0  0
  1  2  1  0
  2  3  1  0
  3  4  1  0
  4  5  1  0
  5  6  1  0
  6  7  1  0
  7  8  1  0
  8  9  2  0
  9 10  1  0
 10 11  2  0
 11 12  1  0
 12 13  1  0
 13 14  1  0
 14 15  2  0
 15 16  1  0
 16 17  2  0
 17 18  1  0
 18 19  2  0
 18 20  2  0
 18 21  1  0
 21 22  1  0
 22 23  1  0
 22 24  1  0
 17 25  1  0
 25 26  2  0
 26 27  1  0
 27 28  2  0
 27 29  1  0
 11 30  1  0
 30 31  2  0
  6 32  1  0
 32 33  1  0
 33  3  1  0
 31  8  1  0
 26 14  1  0
M  CHG  2  27   1  29  -1
M  END
