
     RDKit          3D

 35 38  0  0  0  0  0  0  0  0999 V2000
    5.7515    0.3038   18.1931 C   0  0  0  0  0  0  0  0  0  0  0  0
    5.7945   -0.5075   19.4544 C   0  0  0  0  0  0  0  0  0  0  0  0
    5.6982   -1.9024   19.4015 C   0  0  0  0  0  0  0  0  0  0  0  0
    5.7582   -2.6671   20.5727 C   0  0  0  0  0  0  0  0  0  0  0  0
    5.9220   -2.0443   21.8113 C   0  0  0  0  0  0  0  0  0  0  0  0
    5.9883   -2.6749   23.0241 O   0  0  0  0  0  0  0  0  0  0  0  0
    5.7055   -4.0796   23.0315 C   0  0  0  0  0  0  0  0  0  0  0  0
    6.0705   -4.6349   24.4111 C   0  0  0  0  0  0  0  0  0  0  0  0
    7.4099   -4.2500   24.8304 N   0  0  0  0  0  0  0  0  0  0  0  0
    8.5124   -4.9466   24.3797 C   0  0  0  0  0  0  0  0  0  0  0  0
    8.4367   -5.8862   23.5963 O   0  0  0  0  0  0  0  0  0  0  0  0
    9.8388   -4.4757   24.8654 C   0  0  0  0  0  0  0  0  0  0  0  0
   10.3304   -4.9938   26.0725 C   0  0  0  0  0  0  0  0  0  0  0  0
   11.5599   -4.5662   26.5794 C   0  0  0  0  0  0  0  0  0  0  0  0
   12.3069   -3.6143   25.8867 C   0  0  0  0  0  0  0  0  0  0  0  0
   11.8106   -3.0935   24.6889 C   0  0  0  0  0  0  0  0  0  0  0  0
   12.7215   -1.8508   23.8062 S   0  0  0  0  0  0  0  0  0  0  0  0
   14.0606   -2.3669   23.6304 O   0  0  0  0  0  0  0  0  0  0  0  0
   11.9284   -1.4210   22.6761 O   0  0  0  0  0  0  0  0  0  0  0  0
   12.7759   -0.5789   24.9371 N   0  0  0  0  0  0  0  0  0  0  0  0
   11.4804    0.0960   25.2603 C   0  0  0  0  0  0  0  0  0  0  0  0
   11.0960    1.1719   24.2209 C   0  0  0  0  0  0  0  0  0  0  0  0
   12.1705    2.1581   23.9736 N   0  0  0  0  0  0  0  0  0  0  0  0
   11.7603    3.0914   22.9052 C   0  0  0  0  0  0  0  0  0  0  0  0
   11.9164    4.5464   23.2954 C   0  0  0  0  0  0  0  0  0  0  0  0
   11.0421    5.1299   24.2258 C   0  0  0  0  0  0  0  0  0  0  0  0
   11.1840    6.4684   24.5929 C   0  0  0  0  0  0  0  0  0  0  0  0
   12.2013    7.2385   24.0325 C   0  0  0  0  0  0  0  0  0  0  0  0
   13.0724    6.6736   23.1029 C   0  0  0  0  0  0  0  0  0  0  0  0
   12.9313    5.3340   22.7342 C   0  0  0  0  0  0  0  0  0  0  0  0
   13.4224    1.4541   23.6125 C   0  0  0  0  0  0  0  0  0  0  0  0
   13.8405    0.4413   24.6905 C   0  0  0  0  0  0  0  0  0  0  0  0
   10.5777   -3.5109   24.1738 C   0  0  0  0  0  0  0  0  0  0  0  0
    6.0456   -0.6545   21.8637 C   0  0  0  0  0  0  0  0  0  0  0  0
    5.9855    0.1107   20.6953 C   0  0  0  0  0  0  0  0  0  0  0  0
  1  2  1  0
  2  3  2  0
  3  4  1  0
  4  5  2  0
  5  6  1  0
  6  7  1  0
  7  8  1  0
  8  9  1  0
  9 10  1  0
 10 11  2  0
 10 12  1  0
 12 13  2  0
 13 14  1  0
 14 15  2  0
 15 16  1  0
 16 17  1  0
 17 18  2  0
 17 19  2  0
 17 20  1  0
 20 21  1  0
 21 22  1  0
 22 23  1  0
 23 24  1  0
 24 25  1  0
 25 26  2  0
 26 27  1  0
 27 28  2  0
 28 29  1  0
 29 30  2  0
 23 31  1  0
 31 32  1  0
 16 33  2  0
  5 34  1  0
 34 35  2  0
 35  2  1  0
 33 12  1  0
 32 20  1  0
 30 25  1  0
M  END
