
     RDKit          3D

 34 33  0  0  0  0  0  0  0  0999 V2000
   -0.9320    1.9090   21.3464 C   0  0  0  0  0  0  0  0  0  0  0  0
   -0.3018    3.2824   21.5236 C   0  0  0  0  0  0  0  0  0  0  0  0
    0.7266    3.5667   20.4284 C   0  0  0  0  0  0  0  0  0  0  0  0
    1.8884    2.5687   20.4100 C   0  0  0  0  0  0  0  0  0  0  0  0
    2.9491    2.8896   19.3550 C   0  0  0  0  0  0  0  0  0  0  0  0
    4.0704    1.8886   19.3978 C   0  0  0  0  0  0  0  0  0  0  0  0
    4.8305    1.4779   18.3691 C   0  0  0  0  0  0  0  0  0  0  0  0
    5.9524    0.4791   18.4011 C   0  0  0  0  0  0  0  0  0  0  0  0
    6.7753    0.6346   19.6464 C   0  0  0  0  0  0  0  0  0  0  0  0
    7.6847   -0.2593   20.0637 C   0  0  0  0  0  0  0  0  0  0  0  0
    8.4612   -0.0789   21.2691 C   0  0  0  0  0  0  0  0  0  0  0  0
    9.3717   -0.9683   21.6920 C   0  0  0  0  0  0  0  0  0  0  0  0
   10.1436   -0.7785   22.8994 C   0  0  0  0  0  0  0  0  0  0  0  0
   11.0570   -1.6648   23.3289 C   0  0  0  0  0  0  0  0  0  0  0  0
   11.9206   -1.5675   24.5764 C   0  0  1  0  0  0  0  0  0  0  0  0
   11.7675   -3.1850   25.4700 S   0  0  0  0  0  0  0  0  0  0  0  0
    9.9646   -3.2971   25.8069 C   0  0  0  0  0  0  0  0  0  0  0  0
    9.4456   -4.7279   26.0065 C   0  0  2  0  0  0  0  0  0  0  0  0
   10.6149   -5.6456   26.0936 N   0  0  0  0  0  0  0  0  0  0  0  0
    8.5154   -5.2280   24.8662 C   0  0  0  0  0  0  0  0  0  0  0  0
    8.8589   -6.1345   24.1037 O   0  0  0  0  0  0  0  0  0  0  0  0
    7.2739   -4.6530   24.7874 N   0  0  0  0  0  0  0  0  0  0  0  0
    6.3225   -5.0400   23.7657 C   0  0  0  0  0  0  0  0  0  0  0  0
    6.4908   -4.2067   22.4934 C   0  0  0  0  0  0  0  0  0  0  0  0
    5.9277   -3.1406   22.2668 O   0  0  0  0  0  0  0  0  0  0  0  0
    7.3977   -4.7238   21.6270 O   0  0  0  0  0  0  0  0  0  0  0  0
   13.3775   -1.0528   24.4010 C   0  0  1  0  0  0  0  0  0  0  0  0
   14.1924   -2.1150   23.8782 O   0  0  0  0  0  0  0  0  0  0  0  0
   13.5821    0.1692   23.4815 C   0  0  0  0  0  0  0  0  0  0  0  0
   13.1351    1.5377   24.0257 C   0  0  0  0  0  0  0  0  0  0  0  0
   13.2690    2.7135   23.0539 C   0  0  0  0  0  0  0  0  0  0  0  0
   13.2403    4.0627   23.7242 C   0  0  0  0  0  0  0  0  0  0  0  0
   12.2499    4.7666   23.8498 O   0  0  0  0  0  0  0  0  0  0  0  0
   14.4362    4.4327   24.2183 O   0  0  0  0  0  0  0  0  0  0  0  0
  1  2  1  0
  2  3  1  0
  3  4  1  0
  4  5  1  0
  5  6  1  0
  6  7  2  0
  7  8  1  0
  8  9  1  0
  9 10  2  0
 10 11  1  0
 11 12  2  0
 12 13  1  0
 13 14  2  0
 15 14  1  6
 15 16  1  0
 16 17  1  0
 17 18  1  0
 18 19  1  6
 18 20  1  0
 20 21  2  0
 20 22  1  0
 22 23  1  0
 23 24  1  0
 24 25  2  0
 24 26  1  0
 15 27  1  0
 27 28  1  6
 27 29  1  0
 29 30  1  0
 30 31  1  0
 31 32  1  0
 32 33  2  0
 32 34  1  0
M  END
