
     RDKit          3D

 35 37  0  0  0  0  0  0  0  0999 V2000
    9.2275   -5.3048   27.5598 C   0  0  0  0  0  0  0  0  0  0  0  0
   10.2269   -5.5471   26.4359 C   0  0  0  0  0  0  0  0  0  0  0  0
   10.0725   -4.5797   25.3686 N   0  0  0  0  0  0  0  0  0  0  0  0
    9.0725   -4.5349   24.4228 C   0  0  0  0  0  0  0  0  0  0  0  0
    7.9849   -5.5413   24.2297 C   0  0  0  0  0  0  0  0  0  0  0  0
    6.5641   -4.9605   24.1785 C   0  0  0  0  0  0  0  0  0  0  0  0
    6.4081   -3.8069   23.3106 N   0  0  0  0  0  0  0  0  0  0  0  0
    6.1025   -3.9589   21.9712 C   0  0  0  0  0  0  0  0  0  0  0  0
    5.9906   -5.0546   21.4266 O   0  0  0  0  0  0  0  0  0  0  0  0
    5.9678   -2.7059   21.1835 C   0  0  0  0  0  0  0  0  0  0  0  0
    6.1174   -1.4818   21.8393 C   0  0  0  0  0  0  0  0  0  0  0  0
    6.0074   -0.2926   21.1173 C   0  0  0  0  0  0  0  0  0  0  0  0
    5.7554   -0.3107   19.7406 C   0  0  0  0  0  0  0  0  0  0  0  0
    5.6459    0.9261   19.1614 O   0  0  0  0  0  0  0  0  0  0  0  0
    5.2755    0.9522   17.7826 C   0  0  0  0  0  0  0  0  0  0  0  0
    5.6312   -1.5348   19.0807 C   0  0  0  0  0  0  0  0  0  0  0  0
    5.7347   -2.7337   19.8014 C   0  0  0  0  0  0  0  0  0  0  0  0
    9.2466   -3.4611   23.6723 N   0  0  0  0  0  0  0  0  0  0  0  0
   10.3864   -2.8260   24.0866 N   0  0  0  0  0  0  0  0  0  0  0  0
   10.8942   -3.5244   25.0773 C   0  0  0  0  0  0  0  0  0  0  0  0
   12.3975   -3.2199   25.8692 S   0  0  0  0  0  0  0  0  0  0  0  0
   13.3598   -2.4338   24.5614 C   0  0  0  0  0  0  0  0  0  0  0  0
   13.3085   -0.9083   24.6247 C   0  0  0  0  0  0  0  0  0  0  0  0
   13.6534   -0.3137   25.6434 O   0  0  0  0  0  0  0  0  0  0  0  0
   12.8161   -0.3140   23.4723 N   0  0  0  0  0  0  0  0  0  0  0  0
   12.6416    1.0671   23.2108 C   0  0  0  0  0  0  0  0  0  0  0  0
   13.7198    1.9702   23.2604 C   0  0  0  0  0  0  0  0  0  0  0  0
   13.5411    3.3378   23.0214 C   0  0  0  0  0  0  0  0  0  0  0  0
   12.2603    3.8184   22.7451 C   0  0  0  0  0  0  0  0  0  0  0  0
   12.0451    5.2521   22.5275 N   0  0  0  0  0  0  0  0  0  0  0  0
   12.8997    5.8746   21.8781 O   0  0  0  0  0  0  0  0  0  0  0  0
   11.0241    5.7607   23.0242 O   0  0  0  0  0  0  0  0  0  0  0  0
   11.1669    2.9452   22.7049 C   0  0  0  0  0  0  0  0  0  0  0  0
   11.3481    1.5645   22.9289 C   0  0  0  0  0  0  0  0  0  0  0  0
   10.1416    0.6780   22.7906 C   0  0  0  0  0  0  0  0  0  0  0  0
  1  2  1  0
  2  3  1  0
  3  4  1  0
  4  5  1  0
  5  6  1  0
  6  7  1  0
  7  8  1  0
  8  9  2  0
  8 10  1  0
 10 11  2  0
 11 12  1  0
 12 13  2  0
 13 14  1  0
 14 15  1  0
 13 16  1  0
 16 17  2  0
  4 18  2  0
 18 19  1  0
 19 20  2  0
 20 21  1  0
 21 22  1  0
 22 23  1  0
 23 24  2  0
 23 25  1  0
 25 26  1  0
 26 27  2  0
 27 28  1  0
 28 29  2  0
 29 30  1  0
 30 31  2  0
 30 32  1  0
 29 33  1  0
 33 34  2  0
 34 35  1  0
 20  3  1  0
 34 26  1  0
 17 10  1  0
M  CHG  2  30   1  32  -1
M  END
