
     RDKit          3D

 11 11  0  0  0  0  0  0  0  0999 V2000
    9.4069   -3.7180   23.9468 O   0  0  0  0  0  0  0  0  0  0  0  0
    9.7991   -2.8018   23.2145 N   0  0  0  0  0  0  0  0  0  0  0  0
    9.1379   -2.2333   22.3378 O   0  0  0  0  0  0  0  0  0  0  0  0
   11.1326   -2.3245   23.4347 C   0  0  0  0  0  0  0  0  0  0  0  0
   11.6132   -1.3783   22.5472 C   0  0  0  0  0  0  0  0  0  0  0  0
   12.8555   -0.8599   22.6449 N   0  0  0  0  0  0  0  0  0  0  0  0
   13.6264   -1.3094   23.6661 C   0  0  0  0  0  0  0  0  0  0  0  0
   13.2156   -2.2567   24.6044 C   0  0  0  0  0  0  0  0  0  0  0  0
   14.5941   -2.7793   26.0883 I   0  0  0  0  0  0  0  0  0  0  0  0
   11.9240   -2.7840   24.4889 C   0  0  0  0  0  0  0  0  0  0  0  0
   11.2418   -4.0669   25.7229 Br  0  0  0  0  0  0  0  0  0  0  0  0
  1  2  2  0
  2  3  1  0
  2  4  1  0
  4  5  2  0
  5  6  1  0
  6  7  2  0
  7  8  1  0
  8  9  1  0
  8 10  2  0
 10 11  1  0
 10  4  1  0
M  CHG  2   2   1   3  -1
M  END
