
     RDKit          3D

 11 11  0  0  0  0  0  0  0  0999 V2000
   12.9828    5.4184   22.5150 O   0  0  0  0  0  0  0  0  0  0  0  0
   13.3780    4.4544   23.1840 N   0  0  0  0  0  0  0  0  0  0  0  0
   14.3645    4.4709   23.9317 O   0  0  0  0  0  0  0  0  0  0  0  0
   12.6263    3.2116   23.0825 C   0  0  0  0  0  0  0  0  0  0  0  0
   11.2494    3.2481   22.9485 C   0  0  0  0  0  0  0  0  0  0  0  0
   10.4907    2.1298   22.8490 N   0  0  0  0  0  0  0  0  0  0  0  0
   11.1230    0.9254   22.8838 C   0  0  0  0  0  0  0  0  0  0  0  0
    9.9618   -0.5769   22.7363 Br  0  0  0  0  0  0  0  0  0  0  0  0
   12.5088    0.8041   23.0168 C   0  0  0  0  0  0  0  0  0  0  0  0
   13.5450   -1.0122   23.0775 I   0  0  0  0  0  0  0  0  0  0  0  0
   13.2725    1.9735   23.1179 C   0  0  0  0  0  0  0  0  0  0  0  0
  1  2  2  0
  2  3  1  0
  2  4  1  0
  4  5  2  0
  5  6  1  0
  6  7  2  0
  7  8  1  0
  7  9  1  0
  9 10  1  0
  9 11  2  0
 11  4  1  0
M  CHG  2   2   1   3  -1
M  END
