
     RDKit          3D

 27 30  0  0  0  0  0  0  0  0999 V2000
    5.7092   -4.2184   20.8086 C   0  0  0  0  0  0  0  0  0  0  0  0
    5.1650   -4.6319   22.0554 O   0  0  0  0  0  0  0  0  0  0  0  0
    5.8578   -4.2789   23.1850 C   0  0  0  0  0  0  0  0  0  0  0  0
    5.2948   -3.6413   24.2931 C   0  0  0  0  0  0  0  0  0  0  0  0
    6.0846   -3.3151   25.4080 C   0  0  0  0  0  0  0  0  0  0  0  0
    5.4694   -2.6278   26.6104 C   0  0  0  0  0  0  0  0  0  0  0  0
    5.9286   -1.2437   26.7644 N   0  0  0  0  0  0  0  0  0  0  0  0
    5.2127   -0.5159   27.8191 C   0  0  0  0  0  0  0  0  0  0  0  0
    5.5435    0.9434   27.5276 C   0  0  0  0  0  0  0  0  0  0  0  0
    5.8823    0.9865   26.0344 C   0  0  2  0  0  0  0  0  0  0  0  0
    5.0458    1.9616   25.2900 C   0  0  0  0  0  0  0  0  0  0  0  0
    3.8352    1.8041   24.7830 N   0  0  0  0  0  0  0  0  0  0  0  0
    3.5554    3.0286   24.2284 C   0  0  0  0  0  0  0  0  0  0  0  0
    2.4273    3.4942   23.5394 C   0  0  0  0  0  0  0  0  0  0  0  0
    2.4316    4.8244   23.0880 C   0  0  0  0  0  0  0  0  0  0  0  0
    3.5300    5.6655   23.3179 C   0  0  0  0  0  0  0  0  0  0  0  0
    4.6658    5.2127   24.0017 C   0  0  0  0  0  0  0  0  0  0  0  0
    4.6221    3.8917   24.4310 C   0  0  0  0  0  0  0  0  0  0  0  0
    5.5871    3.2111   25.1139 O   0  0  0  0  0  0  0  0  0  0  0  0
    5.6783   -0.4502   25.5520 C   0  0  0  0  0  0  0  0  0  0  0  0
    7.4538   -3.6352   25.4039 C   0  0  0  0  0  0  0  0  0  0  0  0
    8.0379   -4.2662   24.3041 C   0  0  0  0  0  0  0  0  0  0  0  0
    9.3616   -4.6114   24.2098 O   0  0  0  0  0  0  0  0  0  0  0  0
    9.8935   -5.4374   25.2366 C   0  0  0  0  0  0  0  0  0  0  0  0
    7.2338   -4.5648   23.1911 C   0  0  0  0  0  0  0  0  0  0  0  0
    7.7915   -5.2260   22.1171 O   0  0  0  0  0  0  0  0  0  0  0  0
    7.1101   -6.4627   21.9083 C   0  0  0  0  0  0  0  0  0  0  0  0
  1  2  1  0
  2  3  1  0
  3  4  2  0
  4  5  1  0
  5  6  1  0
  6  7  1  0
  7  8  1  0
  8  9  1  0
  9 10  1  0
 10 11  1  6
 11 12  2  0
 12 13  1  0
 13 14  2  0
 14 15  1  0
 15 16  2  0
 16 17  1  0
 17 18  2  0
 18 19  1  0
 10 20  1  0
  5 21  2  0
 21 22  1  0
 22 23  1  0
 23 24  1  0
 22 25  2  0
 25 26  1  0
 26 27  1  0
 25  3  1  0
 20  7  1  0
 19 11  1  0
 18 13  1  0
M  END
