
     RDKit          3D

 33 35  0  0  0  0  0  0  0  0999 V2000
    4.8456    2.4789   27.4198 C   0  0  0  0  0  0  0  0  0  0  0  0
    4.2374    2.4726   26.1273 O   0  0  0  0  0  0  0  0  0  0  0  0
    5.1571    2.8023   25.1661 C   0  0  0  0  0  0  0  0  0  0  0  0
    6.4655    3.0440   25.5833 C   0  0  0  0  0  0  0  0  0  0  0  0
    7.4700    3.3567   24.6506 C   0  0  0  0  0  0  0  0  0  0  0  0
    8.8823    3.6402   25.1420 C   0  0  1  0  0  0  0  0  0  0  0  0
    9.8736    3.0006   24.3038 N   0  0  0  0  0  0  0  0  0  0  0  0
   10.5969    3.6245   23.3503 C   0  0  0  0  0  0  0  0  0  0  0  0
   11.2522    2.9931   22.5305 O   0  0  0  0  0  0  0  0  0  0  0  0
   10.5917    4.9717   23.3574 N   0  0  0  0  0  0  0  0  0  0  0  0
    9.7070    5.8290   24.1390 C   0  0  2  0  0  0  0  0  0  0  0  0
    8.6170    6.0943   23.2494 O   0  0  0  0  0  0  0  0  0  0  0  0
   10.4511    7.1631   24.5183 C   0  0  0  0  0  0  0  0  0  0  0  0
   10.7980    7.1706   25.8308 F   0  0  0  0  0  0  0  0  0  0  0  0
   11.5942    7.3052   23.8048 F   0  0  0  0  0  0  0  0  0  0  0  0
    9.7034    8.2636   24.3023 F   0  0  0  0  0  0  0  0  0  0  0  0
    9.2597    5.1021   25.4268 C   0  0  1  0  0  0  0  0  0  0  0  0
    8.1435    5.8451   26.1402 C   0  0  0  0  0  0  0  0  0  0  0  0
    7.4799    6.6939   25.5447 O   0  0  0  0  0  0  0  0  0  0  0  0
    7.8086    5.5256   27.5606 C   0  0  0  0  0  0  0  0  0  0  0  0
    6.7938    6.1757   28.2694 C   0  0  0  0  0  0  0  0  0  0  0  0
    6.5448    5.8413   29.6059 C   0  0  0  0  0  0  0  0  0  0  0  0
    7.3090    4.8643   30.2521 C   0  0  0  0  0  0  0  0  0  0  0  0
    7.0142    4.4848   31.6737 C   0  0  0  0  0  0  0  0  0  0  0  0
    8.3085    4.2015   29.5346 C   0  0  0  0  0  0  0  0  0  0  0  0
    8.5571    4.5298   28.1995 C   0  0  0  0  0  0  0  0  0  0  0  0
    7.1257    3.3886   23.2868 C   0  0  0  0  0  0  0  0  0  0  0  0
    5.8173    3.1323   22.8542 C   0  0  0  0  0  0  0  0  0  0  0  0
    5.4135    3.1443   21.5442 O   0  0  0  0  0  0  0  0  0  0  0  0
    5.6617    1.9684   20.7823 C   0  0  0  0  0  0  0  0  0  0  0  0
    4.8384    2.8110   23.8044 C   0  0  0  0  0  0  0  0  0  0  0  0
    3.5476    2.5635   23.4046 O   0  0  0  0  0  0  0  0  0  0  0  0
    2.8190    3.7895   23.3413 C   0  0  0  0  0  0  0  0  0  0  0  0
  1  2  1  0
  2  3  1  0
  3  4  2  0
  4  5  1  0
  6  5  1  6
  6  7  1  0
  7  8  1  0
  8  9  2  0
  8 10  1  0
 10 11  1  0
 11 12  1  6
 11 13  1  0
 13 14  1  0
 13 15  1  0
 13 16  1  0
 11 17  1  0
 17 18  1  6
 18 19  2  0
 18 20  1  0
 20 21  2  0
 21 22  1  0
 22 23  2  0
 23 24  1  0
 23 25  1  0
 25 26  2  0
  5 27  2  0
 27 28  1  0
 28 29  1  0
 29 30  1  0
 28 31  2  0
 31 32  1  0
 32 33  1  0
 31  3  1  0
 17  6  1  0
 26 20  1  0
M  END
