
     RDKit          3D

 20 21  0  0  0  0  0  0  0  0999 V2000
    9.6918    7.1320   27.3582 C   0  0  0  0  0  0  0  0  0  0  0  0
    8.5131    7.9417   27.2641 O   0  0  0  0  0  0  0  0  0  0  0  0
    7.7678    7.8744   28.4131 C   0  0  0  0  0  0  0  0  0  0  0  0
    6.5245    7.2099   28.4074 C   0  0  0  0  0  0  0  0  0  0  0  0
    5.9389    6.4831   26.9426 Cl  0  0  0  0  0  0  0  0  0  0  0  0
    5.7499    7.1683   29.5771 C   0  0  0  0  0  0  0  0  0  0  0  0
    4.2249    6.3565   29.6592 Cl  0  0  0  0  0  0  0  0  0  0  0  0
    6.1973    7.8028   30.7378 C   0  0  0  0  0  0  0  0  0  0  0  0
    7.4063    8.4971   30.7330 C   0  0  0  0  0  0  0  0  0  0  0  0
    8.1831    8.5549   29.5659 C   0  0  0  0  0  0  0  0  0  0  0  0
    9.7190    9.4616   29.6367 S   0  0  0  0  0  0  0  0  0  0  0  0
   10.4641    8.9287   30.7613 O   0  0  0  0  0  0  0  0  0  0  0  0
   10.3197    9.4676   28.3208 O   0  0  0  0  0  0  0  0  0  0  0  0
    9.2623   11.0380   30.0458 N   0  0  0  0  0  0  0  0  0  0  0  0
    8.5450   11.2324   31.3363 C   0  0  0  0  0  0  0  0  0  0  0  0
    7.8863   12.6269   31.3672 C   0  0  0  0  0  0  0  0  0  0  0  0
    8.8704   13.7122   31.1568 N   0  0  0  0  0  0  0  0  0  0  0  0
    8.2054   15.0144   31.1668 C   0  0  0  0  0  0  0  0  0  0  0  0
    9.5704   13.4964   29.8725 C   0  0  0  0  0  0  0  0  0  0  0  0
   10.2593   12.1177   29.8086 C   0  0  0  0  0  0  0  0  0  0  0  0
  1  2  1  0
  2  3  1  0
  3  4  2  0
  4  5  1  0
  4  6  1  0
  6  7  1  0
  6  8  2  0
  8  9  1  0
  9 10  2  0
 10 11  1  0
 11 12  2  0
 11 13  2  0
 11 14  1  0
 14 15  1  0
 15 16  1  0
 16 17  1  0
 17 18  1  0
 17 19  1  0
 19 20  1  0
 10  3  1  0
 20 14  1  0
M  END
