
     RDKit          3D

 23 25  0  0  0  0  0  0  0  0999 V2000
   11.1419    0.7494   26.6717 O   0  0  0  0  0  0  0  0  0  0  0  0
   10.8788    1.0445   25.5056 C   0  0  0  0  0  0  0  0  0  0  0  0
   10.0972    2.2421   25.2327 C   0  0  0  0  0  0  0  0  0  0  0  0
   10.4087    3.2418   24.2796 C   0  0  0  0  0  0  0  0  0  0  0  0
    9.4924    4.2116   24.2196 N   0  0  0  0  0  0  0  0  0  0  0  0
    8.5698    3.8251   25.1121 N   0  0  0  0  0  0  0  0  0  0  0  0
    8.8708    2.6442   25.7279 C   0  0  0  0  0  0  0  0  0  0  0  0
   11.3295    0.2520   24.4385 N   0  0  0  0  0  0  0  0  0  0  0  0
   12.1096   -0.9377   24.7779 C   0  0  0  0  0  0  0  0  0  0  0  0
   11.2324   -2.1560   25.0707 C   0  0  0  0  0  0  0  0  0  0  0  0
   10.6949   -2.8228   23.8074 C   0  0  0  0  0  0  0  0  0  0  0  0
    9.9156   -1.9154   22.9660 N   0  0  0  0  0  0  0  0  0  0  0  0
    8.5347   -1.7390   23.0520 C   0  0  0  0  0  0  0  0  0  0  0  0
    7.8183   -2.3681   23.8273 O   0  0  0  0  0  0  0  0  0  0  0  0
    7.8789   -0.7899   22.1396 C   0  0  0  0  0  0  0  0  0  0  0  0
    8.0045   -1.0207   20.7636 C   0  0  0  0  0  0  0  0  0  0  0  0
    7.3873   -0.1577   19.8585 C   0  0  0  0  0  0  0  0  0  0  0  0
    6.6383    0.9225   20.3262 C   0  0  0  0  0  0  0  0  0  0  0  0
    6.4998    1.1401   21.7001 C   0  0  0  0  0  0  0  0  0  0  0  0
    7.1160    0.2803   22.6136 C   0  0  0  0  0  0  0  0  0  0  0  0
    6.9078    0.5940   24.2980 Cl  0  0  0  0  0  0  0  0  0  0  0  0
   10.6703   -0.8910   22.2476 C   0  0  0  0  0  0  0  0  0  0  0  0
   10.8394    0.4069   23.0576 C   0  0  0  0  0  0  0  0  0  0  0  0
  1  2  2  0
  2  3  1  0
  3  4  1  0
  4  5  2  0
  5  6  1  0
  6  7  1  0
  2  8  1  0
  8  9  1  0
  9 10  1  0
 10 11  1  0
 11 12  1  0
 12 13  1  0
 13 14  2  0
 13 15  1  0
 15 16  2  0
 16 17  1  0
 17 18  2  0
 18 19  1  0
 19 20  2  0
 20 21  1  0
 12 22  1  0
 22 23  1  0
  7  3  2  0
 23  8  1  0
 20 15  1  0
M  END
