
     RDKit          3D

 22 23  0  0  0  0  0  0  0  0999 V2000
    9.9408    6.4417   23.0941 C   0  0  0  0  0  0  0  0  0  0  0  0
    8.5255    6.3189   23.1326 O   0  0  0  0  0  0  0  0  0  0  0  0
    7.7810    7.4560   22.9485 C   0  0  0  0  0  0  0  0  0  0  0  0
    7.9065    8.6287   23.7069 C   0  0  0  0  0  0  0  0  0  0  0  0
    7.0853    9.7502   23.4681 C   0  0  0  0  0  0  0  0  0  0  0  0
    7.1954   11.0420   24.2744 C   0  0  1  0  0  0  0  0  0  0  0  0
    7.2507   12.1963   23.3748 N   0  0  0  0  0  0  0  0  0  0  0  0
    6.1759   12.9741   23.0415 C   0  0  0  0  0  0  0  0  0  0  0  0
    6.2130   13.6795   22.0385 O   0  0  0  0  0  0  0  0  0  0  0  0
    5.0022   12.9980   24.0012 C   0  0  0  0  0  0  0  0  0  0  0  0
    4.8067   11.7013   24.7783 C   0  0  0  0  0  0  0  0  0  0  0  0
    6.1422   11.2610   25.3662 C   0  0  1  0  0  0  0  0  0  0  0  0
    6.0181   10.0288   26.2139 N   0  0  0  0  0  0  0  0  0  0  0  0
    7.0716    9.5899   26.6942 O   0  0  0  0  0  0  0  0  0  0  0  0
    4.8961    9.5360   26.3811 O   0  0  0  0  0  0  0  0  0  0  0  0
    6.1334    9.6717   22.4380 C   0  0  0  0  0  0  0  0  0  0  0  0
    6.0264    8.5229   21.6549 C   0  0  0  0  0  0  0  0  0  0  0  0
    5.0690    8.5208   20.6741 O   0  0  0  0  0  0  0  0  0  0  0  0
    4.4210    9.7937   20.6094 C   0  0  0  0  0  0  0  0  0  0  0  0
    6.8216    7.4066   21.9270 C   0  0  0  0  0  0  0  0  0  0  0  0
    6.6971    6.2729   21.1600 O   0  0  0  0  0  0  0  0  0  0  0  0
    5.5806    5.5062   21.6108 C   0  0  0  0  0  0  0  0  0  0  0  0
  1  2  1  0
  2  3  1  0
  3  4  2  0
  4  5  1  0
  6  5  1  6
  6  7  1  0
  7  8  1  0
  8  9  2  0
  8 10  1  0
 10 11  1  0
 11 12  1  0
 12 13  1  6
 13 14  2  0
 13 15  1  0
  5 16  2  0
 16 17  1  0
 17 18  1  0
 18 19  1  0
 17 20  2  0
 20 21  1  0
 21 22  1  0
 20  3  1  0
 12  6  1  0
M  CHG  2  13   1  15  -1
M  END
