
     RDKit          3D

 14 14  0  0  0  0  0  0  0  0999 V2000
    9.6332    0.8680   22.9674 C   0  0  0  0  0  0  0  0  0  0  0  0
   10.3840   -0.0220   23.7941 O   0  0  0  0  0  0  0  0  0  0  0  0
   10.8515   -1.1076   23.1343 C   0  0  0  0  0  0  0  0  0  0  0  0
   10.7338   -1.3770   21.9531 O   0  0  0  0  0  0  0  0  0  0  0  0
   11.5555   -1.9522   24.1018 C   0  0  0  0  0  0  0  0  0  0  0  0
   12.8787   -1.6516   24.4550 C   0  0  0  0  0  0  0  0  0  0  0  0
   13.8173   -0.1786   23.6978 Br  0  0  0  0  0  0  0  0  0  0  0  0
   13.5346   -2.4591   25.3900 C   0  0  0  0  0  0  0  0  0  0  0  0
   14.8248   -2.2300   25.7820 O   0  0  0  0  0  0  0  0  0  0  0  0
   12.8896   -3.5467   25.9700 C   0  0  0  0  0  0  0  0  0  0  0  0
   11.5746   -3.8328   25.6170 C   0  0  0  0  0  0  0  0  0  0  0  0
   10.9969   -4.9132   26.2254 O   0  0  0  0  0  0  0  0  0  0  0  0
   10.8943   -3.0425   24.6848 C   0  0  0  0  0  0  0  0  0  0  0  0
    9.0964   -3.4876   24.2446 Br  0  0  0  0  0  0  0  0  0  0  0  0
  1  2  1  0
  2  3  1  0
  3  4  2  0
  3  5  1  0
  5  6  2  0
  6  7  1  0
  6  8  1  0
  8  9  1  0
  8 10  2  0
 10 11  1  0
 11 12  1  0
 11 13  2  0
 13 14  1  0
 13  5  1  0
M  END
