
     RDKit          3D

 36 40  0  0  0  0  0  0  0  0999 V2000
   13.6049   -1.5874   25.5665 C   0  0  0  0  0  0  0  0  0  0  0  0
   12.6360   -1.0894   24.4905 C   0  0  1  0  0  0  0  0  0  0  0  0
   13.3532   -0.2027   23.4483 C   0  0  0  0  0  0  0  0  0  0  0  0
   12.8905    1.2372   23.4539 C   0  0  0  0  0  0  0  0  0  0  0  0
   11.5302    1.5463   23.6850 C   0  0  0  0  0  0  0  0  0  0  0  0
   11.0865    2.8723   23.7027 C   0  0  0  0  0  0  0  0  0  0  0  0
   12.0191    3.8627   23.4878 C   0  0  0  0  0  0  0  0  0  0  0  0
   13.3435    3.5731   23.2610 C   0  0  0  0  0  0  0  0  0  0  0  0
   13.8107    2.2759   23.2376 C   0  0  0  0  0  0  0  0  0  0  0  0
   14.0946    4.6916   23.0740 O   0  0  0  0  0  0  0  0  0  0  0  0
   13.0911    5.7180   23.2161 C   0  0  0  0  0  0  0  0  0  0  0  0
   11.7696    5.1997   23.4733 O   0  0  0  0  0  0  0  0  0  0  0  0
   11.8674   -2.2412   23.7941 C   0  0  0  0  0  0  0  0  0  0  0  0
   10.4651   -1.9059   23.4750 N   0  0  0  0  0  0  0  0  0  0  0  0
   10.3339   -1.4876   22.0579 C   0  0  0  0  0  0  0  0  0  0  0  0
    9.1987   -0.4726   21.8845 C   0  0  0  0  0  0  0  0  0  0  0  0
    9.4464    0.7068   21.6217 O   0  0  0  0  0  0  0  0  0  0  0  0
    7.8964   -0.9410   22.0200 N   0  0  0  0  0  0  0  0  0  0  0  0
    6.7901    0.0060   21.8858 C   0  0  0  0  0  0  0  0  0  0  0  0
    6.5166    0.3931   20.4237 C   0  0  0  0  0  0  0  0  0  0  0  0
    6.7076   -0.7890   19.4578 C   0  0  0  0  0  0  0  0  0  0  0  0
    5.8525   -0.6576   18.1989 C   0  0  0  0  0  0  0  0  0  0  0  0
    5.6705    0.7111   17.8624 O   0  0  0  0  0  0  0  0  0  0  0  0
    4.8669    1.4101   18.8153 C   0  0  0  0  0  0  0  0  0  0  0  0
    5.1059    0.9621   20.2582 C   0  0  0  0  0  0  0  0  0  0  0  0
    7.5958   -2.3335   22.3330 C   0  0  0  0  0  0  0  0  0  0  0  0
    8.0602   -2.7363   23.7384 C   0  0  1  0  0  0  0  0  0  0  0  0
    7.3291   -3.9236   24.0949 O   0  0  0  0  0  0  0  0  0  0  0  0
    6.0182   -3.6424   24.5858 C   0  0  0  0  0  0  0  0  0  0  0  0
    5.3108   -4.9428   24.8561 C   0  0  0  0  0  0  0  0  0  0  0  0
    4.3410   -5.4302   23.9756 C   0  0  0  0  0  0  0  0  0  0  0  0
    3.7008   -6.6217   24.2833 C   0  0  0  0  0  0  0  0  0  0  0  0
    3.9514   -7.3459   25.3944 N   0  0  0  0  0  0  0  0  0  0  0  0
    4.8877   -6.8573   26.2354 C   0  0  0  0  0  0  0  0  0  0  0  0
    5.5805   -5.6771   26.0156 C   0  0  0  0  0  0  0  0  0  0  0  0
    9.5745   -3.0395   23.7834 C   0  0  0  0  0  0  0  0  0  0  0  0
  2  1  1  1
  2  3  1  0
  3  4  1  0
  4  5  2  0
  5  6  1  0
  6  7  2  0
  7  8  1  0
  8  9  2  0
  8 10  1  0
 10 11  1  0
 11 12  1  0
  2 13  1  0
 13 14  1  0
 14 15  1  0
 15 16  1  0
 16 17  2  0
 16 18  1  0
 18 19  1  0
 19 20  1  0
 20 21  1  0
 21 22  1  0
 22 23  1  0
 23 24  1  0
 24 25  1  0
 18 26  1  0
 26 27  1  0
 27 28  1  6
 28 29  1  0
 29 30  1  0
 30 31  2  0
 31 32  1  0
 32 33  2  0
 33 34  1  0
 34 35  2  0
 27 36  1  0
  9  4  1  0
 36 14  1  0
 12  7  1  0
 25 20  1  0
 35 30  1  0
M  END
