
     RDKit          3D

 29 33  0  0  0  0  0  0  0  0999 V2000
    4.7433   -3.8836   21.6064 C   0  0  0  0  0  0  0  0  0  0  0  0
    5.8400   -3.9093   22.6087 C   0  0  0  0  0  0  0  0  0  0  0  0
    6.9076   -3.1236   22.4358 N   0  0  0  0  0  0  0  0  0  0  0  0
    7.6988   -3.3605   23.5143 N   0  0  0  0  0  0  0  0  0  0  0  0
    7.1267   -4.3039   24.3778 C   0  0  0  0  0  0  0  0  0  0  0  0
    7.7512   -4.6969   25.5339 N   0  0  0  0  0  0  0  0  0  0  0  0
    8.9031   -4.1477   25.7797 C   0  0  0  0  0  0  0  0  0  0  0  0
    9.5892   -3.1426   24.9295 C   0  0  0  0  0  0  0  0  0  0  0  0
    8.9452   -2.7789   23.8036 C   0  0  0  0  0  0  0  0  0  0  0  0
    9.5513   -1.7992   22.9167 C   0  0  0  0  0  0  0  0  0  0  0  0
   10.7404   -1.2624   23.2171 C   0  0  0  0  0  0  0  0  0  0  0  0
   11.4013   -1.6333   24.3705 N   0  0  0  0  0  0  0  0  0  0  0  0
   12.6127   -1.0691   24.6518 N   0  0  0  0  0  0  0  0  0  0  0  0
   12.8802   -0.2015   25.6747 C   0  0  0  0  0  0  0  0  0  0  0  0
   11.8656    0.3695   26.5834 C   0  0  0  0  0  0  0  0  0  0  0  0
   14.1812    0.0145   25.6956 N   0  0  0  0  0  0  0  0  0  0  0  0
   14.7551   -0.7036   24.6648 N   0  0  0  0  0  0  0  0  0  0  0  0
   13.7972   -1.3487   24.0279 C   0  0  0  0  0  0  0  0  0  0  0  0
   13.9435   -2.2301   22.8520 C   0  0  0  0  0  0  0  0  0  0  0  0
   10.9094   -2.5584   25.2827 C   0  0  0  0  0  0  0  0  0  0  0  0
   11.4789   -2.9011   26.3138 O   0  0  0  0  0  0  0  0  0  0  0  0
    5.9278   -4.6784   23.7975 C   0  0  0  0  0  0  0  0  0  0  0  0
    5.0163   -5.6628   24.3561 C   0  0  0  0  0  0  0  0  0  0  0  0
    4.6681   -5.6279   25.7135 C   0  0  0  0  0  0  0  0  0  0  0  0
    3.7804   -6.5689   26.2436 C   0  0  0  0  0  0  0  0  0  0  0  0
    3.2379   -7.5498   25.4172 C   0  0  0  0  0  0  0  0  0  0  0  0
    2.1447   -8.7081   26.0673 Cl  0  0  0  0  0  0  0  0  0  0  0  0
    3.5768   -7.5997   24.0668 C   0  0  0  0  0  0  0  0  0  0  0  0
    4.4648   -6.6582   23.5374 C   0  0  0  0  0  0  0  0  0  0  0  0
  1  2  1  0
  2  3  2  0
  3  4  1  0
  4  5  1  0
  5  6  1  0
  6  7  2  0
  7  8  1  0
  8  9  2  0
  9 10  1  0
 10 11  2  0
 11 12  1  0
 12 13  1  0
 13 14  1  0
 14 15  1  0
 14 16  2  0
 16 17  1  0
 17 18  2  0
 18 19  1  0
 12 20  1  0
 20 21  2  0
  5 22  2  0
 22 23  1  0
 23 24  2  0
 24 25  1  0
 25 26  2  0
 26 27  1  0
 26 28  1  0
 28 29  2  0
 22  2  1  0
 29 23  1  0
  9  4  1  0
 18 13  1  0
 20  8  1  0
M  END
