
     RDKit          3D

 22 24  0  0  0  0  0  0  0  0999 V2000
    1.4533    5.2042   25.8503 C   0  0  0  0  0  0  0  0  0  0  0  0
    2.4283    4.4394   26.5461 O   0  0  0  0  0  0  0  0  0  0  0  0
    3.4845    3.9507   25.8205 C   0  0  0  0  0  0  0  0  0  0  0  0
    3.4554    2.7551   25.0737 C   0  0  0  0  0  0  0  0  0  0  0  0
    4.5808    2.3145   24.3626 C   0  0  0  0  0  0  0  0  0  0  0  0
    5.7331    3.0802   24.4098 C   0  0  0  0  0  0  0  0  0  0  0  0
    5.7549    4.2703   25.1356 C   0  0  0  0  0  0  0  0  0  0  0  0
    4.6548    4.7282   25.8379 C   0  0  0  0  0  0  0  0  0  0  0  0
    4.7413    5.8561   26.6048 O   0  0  0  0  0  0  0  0  0  0  0  0
    4.9674    5.5141   27.9714 C   0  0  0  0  0  0  0  0  0  0  0  0
    7.1096    4.8240   25.0245 C   0  0  0  0  0  0  0  0  0  0  0  0
    7.5660    5.8199   25.5544 O   0  0  0  0  0  0  0  0  0  0  0  0
    7.8539    3.9871   24.2001 N   0  0  0  0  0  0  0  0  0  0  0  0
    9.2525    3.6627   24.5536 C   0  0  2  0  0  0  0  0  0  0  0  0
   10.2836    4.7365   24.1627 C   0  0  0  0  0  0  0  0  0  0  0  0
   10.8989    4.7347   23.1041 O   0  0  0  0  0  0  0  0  0  0  0  0
   10.5606    5.6472   25.1230 O   0  0  0  0  0  0  0  0  0  0  0  0
    9.5805    2.2539   23.9910 C   0  0  0  0  0  0  0  0  0  0  0  0
   10.6112    1.5051   24.8370 C   0  0  0  0  0  0  0  0  0  0  0  0
    9.9749    2.2347   22.5072 C   0  0  0  0  0  0  0  0  0  0  0  0
    7.9543    1.3948   24.1455 S   0  0  0  0  0  0  0  0  0  0  0  0
    7.0442    2.8789   23.7346 C   0  0  1  0  0  0  0  0  0  0  0  0
  1  2  1  0
  2  3  1  0
  3  4  2  0
  4  5  1  0
  5  6  2  0
  6  7  1  0
  7  8  2  0
  8  9  1  0
  9 10  1  0
  7 11  1  0
 11 12  2  0
 11 13  1  0
 13 14  1  0
 14 15  1  6
 15 16  2  0
 15 17  1  0
 14 18  1  0
 18 19  1  0
 18 20  1  0
 18 21  1  0
 22 21  1  1
  8  3  1  0
 22 13  1  0
 22  6  1  0
M  END
