
     RDKit          3D

 34 37  0  0  0  0  0  0  0  0999 V2000
    7.9538   -0.1199   27.9338 C   0  0  0  0  0  0  0  0  0  0  0  0
    7.4758   -0.0436   26.4826 C   0  0  2  0  0  0  0  0  0  0  0  0
    8.4666   -0.7543   25.5685 C   0  0  0  0  0  0  0  0  0  0  0  0
    8.9100   -0.2514   24.3991 C   0  0  0  0  0  0  0  0  0  0  0  0
    8.4199    1.0489   23.8046 C   0  0  0  0  0  0  0  0  0  0  0  0
    7.1449    1.4616   24.5083 C   0  0  2  0  0  0  0  0  0  0  0  0
    6.6258    2.8562   24.3093 C   0  0  0  0  0  0  0  0  0  0  0  0
    6.7112    3.5160   23.2888 O   0  0  0  0  0  0  0  0  0  0  0  0
    5.9420    3.1429   25.4789 N   0  0  0  0  0  0  0  0  0  0  0  0
    5.1195    4.2644   25.6374 N   0  0  0  0  0  0  0  0  0  0  0  0
    4.4940    4.3752   26.9506 C   0  0  0  0  0  0  0  0  0  0  0  0
    5.4692    4.7372   28.0493 C   0  0  0  0  0  0  0  0  0  0  0  0
    6.6843    5.3708   27.7445 C   0  0  0  0  0  0  0  0  0  0  0  0
    7.5683    5.7341   28.7634 C   0  0  0  0  0  0  0  0  0  0  0  0
    7.2365    5.4612   30.0971 C   0  0  0  0  0  0  0  0  0  0  0  0
    8.1615    5.8481   31.1688 N   0  0  0  0  0  0  0  0  0  0  0  0
    7.8352    5.5910   32.3361 O   0  0  0  0  0  0  0  0  0  0  0  0
    9.2179    6.4085   30.8412 O   0  0  0  0  0  0  0  0  0  0  0  0
    6.0319    4.8245   30.4154 C   0  0  0  0  0  0  0  0  0  0  0  0
    5.1542    4.4645   29.3905 C   0  0  0  0  0  0  0  0  0  0  0  0
    5.1577    5.3333   24.7535 C   0  0  0  0  0  0  0  0  0  0  0  0
    5.9074    5.3929   23.7823 O   0  0  0  0  0  0  0  0  0  0  0  0
    4.2540    6.4807   24.9940 C   0  0  0  0  0  0  0  0  0  0  0  0
    4.7362    7.6553   25.5870 C   0  0  0  0  0  0  0  0  0  0  0  0
    3.8715    8.7281   25.8067 C   0  0  0  0  0  0  0  0  0  0  0  0
    2.5317    8.6343   25.4227 C   0  0  0  0  0  0  0  0  0  0  0  0
    2.0630    7.4627   24.8072 C   0  0  0  0  0  0  0  0  0  0  0  0
    0.6566    7.3729   24.3955 N   0  0  0  0  0  0  0  0  0  0  0  0
    0.2790    6.3249   23.8549 O   0  0  0  0  0  0  0  0  0  0  0  0
   -0.0693    8.3527   24.6170 O   0  0  0  0  0  0  0  0  0  0  0  0
    2.9214    6.3811   24.5833 C   0  0  0  0  0  0  0  0  0  0  0  0
    6.1529    2.2216   26.4868 C   0  0  0  0  0  0  0  0  0  0  0  0
    5.5716    2.1275   27.5536 O   0  0  0  0  0  0  0  0  0  0  0  0
    7.3309    1.4044   26.0247 C   0  0  1  0  0  0  0  0  0  0  0  0
  2  1  1  1
  2  3  1  0
  3  4  2  0
  4  5  1  0
  6  5  1  6
  6  7  1  0
  7  8  2  0
  7  9  1  0
  9 10  1  0
 10 11  1  0
 11 12  1  0
 12 13  2  0
 13 14  1  0
 14 15  2  0
 15 16  1  0
 16 17  2  0
 16 18  1  0
 15 19  1  0
 19 20  2  0
 10 21  1  0
 21 22  2  0
 21 23  1  0
 23 24  2  0
 24 25  1  0
 25 26  2  0
 26 27  1  0
 27 28  1  0
 28 29  2  0
 28 30  1  0
 27 31  2  0
  9 32  1  0
 32 33  2  0
 34 32  1  1
 34  2  1  0
 34  6  1  0
 20 12  1  0
 31 23  1  0
M  CHG  4  16   1  18  -1  28   1  30  -1
M  END
