
     RDKit          3D

 36 39  0  0  0  0  0  0  0  0999 V2000
    2.1335   -7.8044   30.5235 C   0  0  0  0  0  0  0  0  0  0  0  0
    2.0344   -6.8984   29.4281 O   0  0  0  0  0  0  0  0  0  0  0  0
    0.7982   -6.6750   28.8750 C   0  0  0  0  0  0  0  0  0  0  0  0
   -0.1126   -7.7235   28.6566 C   0  0  0  0  0  0  0  0  0  0  0  0
   -1.3856   -7.4566   28.1419 C   0  0  0  0  0  0  0  0  0  0  0  0
   -2.3256   -8.5604   27.9110 N   0  0  0  0  0  0  0  0  0  0  0  0
   -2.0096   -9.6848   28.3255 O   0  0  0  0  0  0  0  0  0  0  0  0
   -3.3832   -8.3005   27.3190 O   0  0  0  0  0  0  0  0  0  0  0  0
   -1.7659   -6.1508   27.8473 C   0  0  0  0  0  0  0  0  0  0  0  0
   -0.8631   -5.1069   28.0732 C   0  0  0  0  0  0  0  0  0  0  0  0
    0.4281   -5.3317   28.5902 C   0  0  0  0  0  0  0  0  0  0  0  0
    1.3091   -4.2171   28.7805 N   0  0  0  0  0  0  0  0  0  0  0  0
    2.5925   -4.0878   28.1263 C   0  0  0  0  0  0  0  0  0  0  0  0
    2.9498   -2.6169   28.2749 C   0  0  2  0  0  0  0  0  0  0  0  0
    4.4487   -2.3816   28.2353 C   0  0  0  0  0  0  0  0  0  0  0  0
    5.2032   -2.9237   29.0342 O   0  0  0  0  0  0  0  0  0  0  0  0
    4.8245   -1.5530   27.1895 N   0  0  0  0  0  0  0  0  0  0  0  0
    6.1286   -1.1271   26.8575 C   0  0  0  0  0  0  0  0  0  0  0  0
    6.3173    0.2464   26.6491 C   0  0  0  0  0  0  0  0  0  0  0  0
    7.5778    0.7568   26.3150 C   0  0  0  0  0  0  0  0  0  0  0  0
    8.6712   -0.1065   26.1917 C   0  0  0  0  0  0  0  0  0  0  0  0
   10.0305    0.3840   25.8291 C   0  0  0  0  0  0  0  0  0  0  0  0
   11.0017   -0.0109   26.4628 O   0  0  0  0  0  0  0  0  0  0  0  0
   10.0731    1.2871   24.7920 N   0  0  0  0  0  0  0  0  0  0  0  0
   11.2651    1.7797   24.4018 N   0  0  0  0  0  0  0  0  0  0  0  0
   11.5531    3.1156   24.3364 C   0  0  0  0  0  0  0  0  0  0  0  0
   10.6764    4.1742   24.8973 C   0  0  0  0  0  0  0  0  0  0  0  0
   12.7771    3.2191   23.6986 C   0  0  0  0  0  0  0  0  0  0  0  0
   13.2025    1.9088   23.3603 C   0  0  0  0  0  0  0  0  0  0  0  0
   12.2300    1.0253   23.7934 C   0  0  0  0  0  0  0  0  0  0  0  0
   12.1698   -0.4542   23.6985 C   0  0  0  0  0  0  0  0  0  0  0  0
    8.4843   -1.4783   26.3844 C   0  0  0  0  0  0  0  0  0  0  0  0
    7.2222   -1.9837   26.7217 C   0  0  0  0  0  0  0  0  0  0  0  0
    2.3202   -2.2512   29.6071 C   0  0  0  0  0  0  0  0  0  0  0  0
    1.1296   -3.1727   29.6982 C   0  0  0  0  0  0  0  0  0  0  0  0
    0.2211   -2.9834   30.4933 O   0  0  0  0  0  0  0  0  0  0  0  0
  1  2  1  0
  2  3  1  0
  3  4  2  0
  4  5  1  0
  5  6  1  0
  6  7  2  0
  6  8  1  0
  5  9  2  0
  9 10  1  0
 10 11  2  0
 11 12  1  0
 12 13  1  0
 13 14  1  0
 14 15  1  1
 15 16  2  0
 15 17  1  0
 17 18  1  0
 18 19  2  0
 19 20  1  0
 20 21  2  0
 21 22  1  0
 22 23  2  0
 22 24  1  0
 24 25  1  0
 25 26  1  0
 26 27  1  0
 26 28  2  0
 28 29  1  0
 29 30  2  0
 30 31  1  0
 21 32  1  0
 32 33  2  0
 14 34  1  0
 34 35  1  0
 35 36  2  0
 11  3  1  0
 35 12  1  0
 33 18  1  0
 30 25  1  0
M  CHG  2   6   1   8  -1
M  END
