
     RDKit          3D

 32 35  0  0  0  0  0  0  0  0999 V2000
   11.9644   -1.6539   21.7721 C   0  0  0  0  0  0  0  0  0  0  0  0
   12.8037   -1.8001   22.9874 C   0  0  0  0  0  0  0  0  0  0  0  0
   14.0962   -2.2727   23.1285 C   0  0  0  0  0  0  0  0  0  0  0  0
   14.4347   -2.2018   24.5042 C   0  0  0  0  0  0  0  0  0  0  0  0
   13.3438   -1.6868   25.1819 C   0  0  0  0  0  0  0  0  0  0  0  0
   13.1632   -1.4063   26.6282 C   0  0  0  0  0  0  0  0  0  0  0  0
   12.3679   -1.4858   24.2444 N   0  0  0  0  0  0  0  0  0  0  0  0
   11.2113   -0.8422   24.4908 N   0  0  0  0  0  0  0  0  0  0  0  0
   10.1955   -1.5090   25.1356 C   0  0  0  0  0  0  0  0  0  0  0  0
   10.2564   -2.6638   25.5422 O   0  0  0  0  0  0  0  0  0  0  0  0
    8.9527   -0.7194   25.3664 C   0  0  0  0  0  0  0  0  0  0  0  0
    7.7615   -1.3094   25.8018 C   0  0  0  0  0  0  0  0  0  0  0  0
    6.6172   -0.5254   26.0036 C   0  0  0  0  0  0  0  0  0  0  0  0
    6.6501    0.8530   25.7833 C   0  0  0  0  0  0  0  0  0  0  0  0
    5.5453    1.7120   25.9622 N   0  0  0  0  0  0  0  0  0  0  0  0
    4.2345    1.3578   26.2246 C   0  0  0  0  0  0  0  0  0  0  0  0
    3.8064    0.2116   26.3321 O   0  0  0  0  0  0  0  0  0  0  0  0
    3.2655    2.5296   26.3663 C   0  0  2  0  0  0  0  0  0  0  0  0
    1.8143    2.0839   26.3421 C   0  0  0  0  0  0  0  0  0  0  0  0
    1.3869    2.3176   24.9132 C   0  0  0  0  0  0  0  0  0  0  0  0
    0.3587    1.8509   24.4503 O   0  0  0  0  0  0  0  0  0  0  0  0
    2.3544    3.1210   24.2892 N   0  0  0  0  0  0  0  0  0  0  0  0
    2.3080    3.6141   22.9528 C   0  0  0  0  0  0  0  0  0  0  0  0
    1.6239    4.7928   22.6229 C   0  0  0  0  0  0  0  0  0  0  0  0
    1.5733    5.2635   21.3046 C   0  0  0  0  0  0  0  0  0  0  0  0
    2.2085    4.5615   20.2867 C   0  0  0  0  0  0  0  0  0  0  0  0
    2.8923    3.3925   20.5954 C   0  0  0  0  0  0  0  0  0  0  0  0
    3.6881    2.5159   19.3454 Cl  0  0  0  0  0  0  0  0  0  0  0  0
    2.9436    2.9197   21.9109 C   0  0  0  0  0  0  0  0  0  0  0  0
    3.3790    3.5238   25.2307 C   0  0  0  0  0  0  0  0  0  0  0  0
    7.8497    1.4411   25.3623 C   0  0  0  0  0  0  0  0  0  0  0  0
    8.9939    0.6630   25.1593 C   0  0  0  0  0  0  0  0  0  0  0  0
  1  2  1  0
  2  3  2  0
  3  4  1  0
  4  5  2  0
  5  6  1  0
  5  7  1  0
  7  8  1  0
  8  9  1  0
  9 10  2  0
  9 11  1  0
 11 12  2  0
 12 13  1  0
 13 14  2  0
 14 15  1  0
 15 16  1  0
 16 17  2  0
 18 16  1  6
 18 19  1  0
 19 20  1  0
 20 21  2  0
 20 22  1  0
 22 23  1  0
 23 24  2  0
 24 25  1  0
 25 26  2  0
 26 27  1  0
 27 28  1  0
 27 29  2  0
 22 30  1  0
 14 31  1  0
 31 32  2  0
  7  2  1  0
 32 11  1  0
 30 18  1  0
 29 23  1  0
M  END
