
     RDKit          3D

 34 37  0  0  0  0  0  0  0  0999 V2000
   -2.4906   -5.2165   25.9308 C   0  0  0  0  0  0  0  0  0  0  0  0
   -1.4623   -6.2499   25.6570 C   0  0  0  0  0  0  0  0  0  0  0  0
   -1.5647   -7.4538   24.9834 C   0  0  0  0  0  0  0  0  0  0  0  0
   -0.2846   -8.0650   24.9925 C   0  0  0  0  0  0  0  0  0  0  0  0
    0.5788   -7.2265   25.6741 C   0  0  0  0  0  0  0  0  0  0  0  0
    2.0250   -7.3754   25.9710 C   0  0  0  0  0  0  0  0  0  0  0  0
   -0.1681   -6.1602   26.0907 N   0  0  0  0  0  0  0  0  0  0  0  0
    0.3588   -5.0592   26.6564 N   0  0  0  0  0  0  0  0  0  0  0  0
    0.1175   -4.7987   27.9850 C   0  0  0  0  0  0  0  0  0  0  0  0
   -0.5792   -5.4899   28.7203 O   0  0  0  0  0  0  0  0  0  0  0  0
    0.7402   -3.5574   28.5296 C   0  0  0  0  0  0  0  0  0  0  0  0
    0.5163   -3.2425   29.8749 C   0  0  0  0  0  0  0  0  0  0  0  0
    1.0799   -2.0951   30.4272 C   0  0  0  0  0  0  0  0  0  0  0  0
    1.8718   -1.2598   29.6377 C   0  0  0  0  0  0  0  0  0  0  0  0
    2.1129   -1.5640   28.2913 C   0  0  0  0  0  0  0  0  0  0  0  0
    2.9280   -0.6660   27.5674 N   0  0  0  0  0  0  0  0  0  0  0  0
    4.2679   -0.3846   27.7820 C   0  0  0  0  0  0  0  0  0  0  0  0
    4.9714   -0.8595   28.6667 O   0  0  0  0  0  0  0  0  0  0  0  0
    4.8101    0.6376   26.8009 C   0  0  2  0  0  0  0  0  0  0  0  0
    5.5346    1.7884   27.4788 C   0  0  0  0  0  0  0  0  0  0  0  0
    5.3138    2.9507   26.5432 C   0  0  0  0  0  0  0  0  0  0  0  0
    5.9724    3.9766   26.6111 O   0  0  0  0  0  0  0  0  0  0  0  0
    4.2538    2.6282   25.6876 N   0  0  0  0  0  0  0  0  0  0  0  0
    3.6721    3.4769   24.7054 C   0  0  0  0  0  0  0  0  0  0  0  0
    4.4108    4.4867   24.0708 C   0  0  0  0  0  0  0  0  0  0  0  0
    3.8349    5.3146   23.0967 C   0  0  0  0  0  0  0  0  0  0  0  0
    2.4959    5.1379   22.7447 C   0  0  0  0  0  0  0  0  0  0  0  0
    1.8867    5.9979   21.7234 N   0  0  0  0  0  0  0  0  0  0  0  0
    0.7729    5.6728   21.2882 O   0  0  0  0  0  0  0  0  0  0  0  0
    2.5223    6.9955   21.3539 O   0  0  0  0  0  0  0  0  0  0  0  0
    1.7350    4.1425   23.3617 C   0  0  0  0  0  0  0  0  0  0  0  0
    2.3257    3.3208   24.3316 C   0  0  0  0  0  0  0  0  0  0  0  0
    3.7021    1.3358   26.0287 C   0  0  0  0  0  0  0  0  0  0  0  0
    1.5517   -2.7223   27.7461 C   0  0  0  0  0  0  0  0  0  0  0  0
  1  2  1  0
  2  3  2  0
  3  4  1  0
  4  5  2  0
  5  6  1  0
  5  7  1  0
  7  8  1  0
  8  9  1  0
  9 10  2  0
  9 11  1  0
 11 12  2  0
 12 13  1  0
 13 14  2  0
 14 15  1  0
 15 16  1  0
 16 17  1  0
 17 18  2  0
 19 17  1  1
 19 20  1  0
 20 21  1  0
 21 22  2  0
 21 23  1  0
 23 24  1  0
 24 25  2  0
 25 26  1  0
 26 27  2  0
 27 28  1  0
 28 29  2  0
 28 30  1  0
 27 31  1  0
 31 32  2  0
 23 33  1  0
 15 34  2  0
  7  2  1  0
 34 11  1  0
 33 19  1  0
 32 24  1  0
M  CHG  2  28   1  30  -1
M  END
