
     RDKit          3D

 34 37  0  0  0  0  0  0  0  0999 V2000
    8.4539   -1.1965   21.1928 C   0  0  0  0  0  0  0  0  0  0  0  0
    7.5098   -0.3287   20.4447 C   0  0  0  0  0  0  0  0  0  0  0  0
    7.2387   -0.2675   19.0903 C   0  0  0  0  0  0  0  0  0  0  0  0
    6.2541    0.7335   18.8932 C   0  0  0  0  0  0  0  0  0  0  0  0
    5.9378    1.2702   20.1304 C   0  0  0  0  0  0  0  0  0  0  0  0
    4.9768    2.3465   20.4930 C   0  0  0  0  0  0  0  0  0  0  0  0
    6.7344    0.6280   21.0388 N   0  0  0  0  0  0  0  0  0  0  0  0
    6.5954    0.7424   22.3708 N   0  0  0  0  0  0  0  0  0  0  0  0
    7.0347    1.8795   23.0047 C   0  0  0  0  0  0  0  0  0  0  0  0
    7.5328    2.8531   22.4523 O   0  0  0  0  0  0  0  0  0  0  0  0
    6.8329    1.9036   24.4790 C   0  0  0  0  0  0  0  0  0  0  0  0
    6.4019    0.7765   25.1874 C   0  0  0  0  0  0  0  0  0  0  0  0
    6.2312    0.8567   26.5691 C   0  0  0  0  0  0  0  0  0  0  0  0
    6.4949    2.0531   27.2456 C   0  0  0  0  0  0  0  0  0  0  0  0
    6.9361    3.1813   26.5516 C   0  0  0  0  0  0  0  0  0  0  0  0
    7.2070    4.4268   27.1552 N   0  0  0  0  0  0  0  0  0  0  0  0
    8.4469    5.0031   27.3822 C   0  0  0  0  0  0  0  0  0  0  0  0
    9.5304    4.5312   27.0660 O   0  0  0  0  0  0  0  0  0  0  0  0
    8.3398    6.3586   28.0580 C   0  0  1  0  0  0  0  0  0  0  0  0
    9.2267    6.4639   29.2857 C   0  0  0  0  0  0  0  0  0  0  0  0
    9.6341    7.9152   29.3271 C   0  0  0  0  0  0  0  0  0  0  0  0
   10.1481    8.4202   30.3167 O   0  0  0  0  0  0  0  0  0  0  0  0
    9.3542    8.4847   28.0785 N   0  0  0  0  0  0  0  0  0  0  0  0
    9.6773    9.8104   27.6665 C   0  0  0  0  0  0  0  0  0  0  0  0
   10.5863   10.6078   28.3823 C   0  0  0  0  0  0  0  0  0  0  0  0
   10.9094   11.9110   27.9747 C   0  0  0  0  0  0  0  0  0  0  0  0
   10.3242   12.4518   26.8351 C   0  0  0  0  0  0  0  0  0  0  0  0
    9.4111   11.6760   26.1148 C   0  0  0  0  0  0  0  0  0  0  0  0
    8.7778   12.2345   24.9161 N   0  0  0  0  0  0  0  0  0  0  0  0
    8.8939   13.4513   24.7170 O   0  0  0  0  0  0  0  0  0  0  0  0
    8.1627   11.4549   24.1741 O   0  0  0  0  0  0  0  0  0  0  0  0
    9.0875   10.3681   26.5211 C   0  0  0  0  0  0  0  0  0  0  0  0
    8.8366    7.4874   27.1683 C   0  0  0  0  0  0  0  0  0  0  0  0
    7.1059    3.0958   25.1645 C   0  0  0  0  0  0  0  0  0  0  0  0
  1  2  1  0
  2  3  2  0
  3  4  1  0
  4  5  2  0
  5  6  1  0
  5  7  1  0
  7  8  1  0
  8  9  1  0
  9 10  2  0
  9 11  1  0
 11 12  2  0
 12 13  1  0
 13 14  2  0
 14 15  1  0
 15 16  1  0
 16 17  1  0
 17 18  2  0
 19 17  1  6
 19 20  1  0
 20 21  1  0
 21 22  2  0
 21 23  1  0
 23 24  1  0
 24 25  2  0
 25 26  1  0
 26 27  2  0
 27 28  1  0
 28 29  1  0
 29 30  2  0
 29 31  1  0
 28 32  2  0
 23 33  1  0
 15 34  2  0
  7  2  1  0
 34 11  1  0
 33 19  1  0
 32 24  1  0
M  CHG  2  29   1  31  -1
M  END
