
     RDKit          3D

 26 28  0  0  0  0  0  0  0  0999 V2000
    0.1647   -0.0769   28.2729 C   0  0  0  0  0  0  0  0  0  0  0  0
    0.9288   -0.0010   27.0775 O   0  0  0  0  0  0  0  0  0  0  0  0
    2.2857    0.1470   27.2045 C   0  0  0  0  0  0  0  0  0  0  0  0
    2.9930   -0.0062   28.4005 C   0  0  0  0  0  0  0  0  0  0  0  0
    4.3761    0.1918   28.4359 C   0  0  0  0  0  0  0  0  0  0  0  0
    5.0669    0.5477   27.2778 C   0  0  0  0  0  0  0  0  0  0  0  0
    4.3837    0.6928   26.0653 C   0  0  0  0  0  0  0  0  0  0  0  0
    5.1145    1.0924   24.8545 C   0  0  0  0  0  0  0  0  0  0  0  0
    6.1313    0.4242   24.2937 C   0  0  0  0  0  0  0  0  0  0  0  0
    6.8332   -1.0699   24.8174 S   0  0  0  0  0  0  0  0  0  0  0  0
    7.9221   -1.0941   23.4510 C   0  0  0  0  0  3  0  0  0  0  0  0
    8.8728   -2.0549   23.2485 N   0  0  0  0  0  0  0  0  0  0  0  0
    9.1213   -3.2358   23.9782 C   0  0  0  0  0  0  0  0  0  0  0  0
    8.0887   -3.9946   24.5505 C   0  0  0  0  0  0  0  0  0  0  0  0
    8.3653   -5.1750   25.2413 C   0  0  0  0  0  0  0  0  0  0  0  0
    7.0769   -6.0740   25.9448 Cl  0  0  0  0  0  0  0  0  0  0  0  0
    9.6716   -5.6286   25.3721 C   0  0  0  0  0  0  0  0  0  0  0  0
   10.7117   -4.8946   24.8065 C   0  0  0  0  0  0  0  0  0  0  0  0
   10.4501   -3.7052   24.1037 C   0  0  0  0  0  0  0  0  0  0  0  0
   11.6063   -2.9568   23.4931 C   0  0  0  0  0  0  0  0  0  0  0  0
    7.7558    0.0210   22.6893 N   0  0  0  0  0  0  0  0  0  0  0  0
    6.7986    0.9245   23.0637 C   0  0  0  0  0  0  0  0  0  0  0  0
    6.5516    1.9683   22.4831 O   0  0  0  0  0  0  0  0  0  0  0  0
    2.9946    0.4752   26.0339 C   0  0  0  0  0  0  0  0  0  0  0  0
    2.3302    0.6647   24.8416 O   0  0  0  0  0  0  0  0  0  0  0  0
    2.3122    2.0499   24.4967 C   0  0  0  0  0  0  0  0  0  0  0  0
  1  2  1  0
  2  3  1  0
  3  4  2  0
  4  5  1  0
  5  6  2  0
  6  7  1  0
  7  8  1  0
  8  9  2  0
  9 10  1  0
 10 11  1  0
 11 12  1  0
 12 13  1  0
 13 14  2  0
 14 15  1  0
 15 16  1  0
 15 17  2  0
 17 18  1  0
 18 19  2  0
 19 20  1  0
 11 21  1  0
 21 22  1  0
 22 23  2  0
  7 24  2  0
 24 25  1  0
 25 26  1  0
 24  3  1  0
 22  9  1  0
 19 13  1  0
M  RAD  1  11   2
M  END
