
     RDKit          3D

 26 28  0  0  0  0  0  0  0  0999 V2000
    3.9848   -0.0761   30.2610 C   0  0  0  0  0  0  0  0  0  0  0  0
    3.1259   -1.0941   29.5033 C   0  0  1  0  0  0  0  0  0  0  0  0
    1.6523   -0.6548   29.4410 C   0  0  0  0  0  0  0  0  0  0  0  0
    1.3696    0.4349   28.5584 O   0  0  0  0  0  0  0  0  0  0  0  0
    2.2865    0.5864   27.4728 C   0  0  0  0  0  0  0  0  0  0  0  0
    2.9953   -0.7052   27.0233 C   0  0  2  0  0  0  0  0  0  0  0  0
    2.0231   -1.6657   26.3298 C   0  0  0  0  0  0  0  0  0  0  0  0
    3.6826   -1.3529   28.1618 N   0  0  0  0  0  0  0  0  0  0  0  0
    4.7475   -2.2456   28.0596 C   0  0  0  0  0  0  0  0  0  0  0  0
    5.3077   -2.7591   29.0243 O   0  0  0  0  0  0  0  0  0  0  0  0
    5.2610   -2.5995   26.7239 C   0  0  0  0  0  0  0  0  0  0  0  0
    5.6697   -1.5921   25.8414 C   0  0  0  0  0  0  0  0  0  0  0  0
    6.1877   -1.9337   24.5906 C   0  0  0  0  0  0  0  0  0  0  0  0
    6.3137   -3.2770   24.2316 C   0  0  0  0  0  0  0  0  0  0  0  0
    5.9300   -4.2734   25.1371 C   0  0  0  0  0  0  0  0  0  0  0  0
    6.0980   -5.9873   24.7060 S   0  0  0  0  0  0  0  0  0  0  0  0
    6.2992   -6.7468   25.9217 O   0  0  0  0  0  0  0  0  0  0  0  0
    7.0405   -6.0507   23.6103 O   0  0  0  0  0  0  0  0  0  0  0  0
    4.5515   -6.3709   24.1110 N   0  0  0  0  0  0  0  0  0  0  0  0
    4.0059   -5.4530   23.0582 C   0  0  0  0  0  0  0  0  0  0  0  0
    2.8921   -4.5422   23.6075 C   0  0  0  0  0  0  0  0  0  0  0  0
    1.7395   -5.2610   24.1878 N   0  0  0  0  0  0  0  0  0  0  0  0
    0.6135   -5.3365   23.2606 C   0  0  0  0  0  0  0  0  0  0  0  0
    2.1201   -6.6096   24.6574 C   0  0  0  0  0  0  0  0  0  0  0  0
    3.5601   -6.6678   25.1970 C   0  0  0  0  0  0  0  0  0  0  0  0
    5.4066   -3.9455   26.3896 C   0  0  0  0  0  0  0  0  0  0  0  0
  2  1  1  6
  2  3  1  0
  3  4  1  0
  4  5  1  0
  5  6  1  0
  6  7  1  1
  6  8  1  0
  8  9  1  0
  9 10  2  0
  9 11  1  0
 11 12  2  0
 12 13  1  0
 13 14  2  0
 14 15  1  0
 15 16  1  0
 16 17  2  0
 16 18  2  0
 16 19  1  0
 19 20  1  0
 20 21  1  0
 21 22  1  0
 22 23  1  0
 22 24  1  0
 24 25  1  0
 15 26  2  0
  8  2  1  0
 26 11  1  0
 25 19  1  0
M  END
