
     RDKit          3D

 22 24  0  0  0  0  0  0  0  0999 V2000
    8.0682    8.6083   27.6563 C   0  0  0  0  0  0  0  0  0  0  0  0
    7.2023    7.8052   26.8661 O   0  0  0  0  0  0  0  0  0  0  0  0
    7.6992    6.6197   26.3913 C   0  0  0  0  0  0  0  0  0  0  0  0
    7.8550    6.3046   25.0484 C   0  0  0  0  0  0  0  0  0  0  0  0
    8.3695    5.0583   24.6896 C   0  0  0  0  0  0  0  0  0  0  0  0
    8.7299    4.0902   25.6620 C   0  0  0  0  0  0  0  0  0  0  0  0
    8.6168    4.4119   27.0219 C   0  0  0  0  0  0  0  0  0  0  0  0
    9.0001    3.5516   27.9817 N   0  0  0  0  0  0  0  0  0  0  0  0
    9.5150    2.3859   27.5900 C   0  0  0  0  0  0  0  0  0  0  0  0
    9.6644    1.9744   26.3295 N   0  0  0  0  0  0  0  0  0  0  0  0
    9.2379    2.8052   25.3624 C   0  0  0  0  0  0  0  0  0  0  0  0
    9.3314    2.3671   24.0288 N   0  0  0  0  0  0  0  0  0  0  0  0
    9.5116    0.9065   23.8642 C   0  0  0  0  0  0  0  0  0  0  0  0
   10.9897    0.4537   23.8346 C   0  0  2  0  0  0  0  0  0  0  0  0
   11.6282    0.3128   25.2140 C   0  0  0  0  0  0  0  0  0  0  0  0
   11.7961    1.2562   22.9571 O   0  0  0  0  0  0  0  0  0  0  0  0
   11.7017    2.6622   23.2496 C   0  0  1  0  0  0  0  0  0  0  0  0
   12.5677    3.3928   22.2296 C   0  0  0  0  0  0  0  0  0  0  0  0
   10.2405    3.1474   23.1632 C   0  0  0  0  0  0  0  0  0  0  0  0
    8.1024    5.6770   27.3564 C   0  0  0  0  0  0  0  0  0  0  0  0
    7.9177    5.9951   28.6918 O   0  0  0  0  0  0  0  0  0  0  0  0
    6.5262    5.9764   29.0060 C   0  0  0  0  0  0  0  0  0  0  0  0
  1  2  1  0
  2  3  1  0
  3  4  2  0
  4  5  1  0
  5  6  2  0
  6  7  1  0
  7  8  1  0
  8  9  2  0
  9 10  1  0
 10 11  2  0
 11 12  1  0
 12 13  1  0
 13 14  1  0
 14 15  1  1
 14 16  1  0
 16 17  1  0
 17 18  1  6
 17 19  1  0
  7 20  2  0
 20 21  1  0
 21 22  1  0
 20  3  1  0
 11  6  1  0
 19 12  1  0
M  END
