
     RDKit          3D

 25 28  0  0  0  0  0  0  0  0999 V2000
    8.4987    6.4491   23.1429 C   0  0  0  0  0  0  0  0  0  0  0  0
    8.7559    6.1145   24.5638 C   0  0  0  0  0  0  0  0  0  0  0  0
    9.5418    6.9530   25.3198 N   0  0  0  0  0  0  0  0  0  0  0  0
    9.5136    6.4585   26.5374 C   0  0  0  0  0  0  0  0  0  0  0  0
   10.1237    6.9111   27.7417 C   0  0  0  0  0  0  0  0  0  0  0  0
    9.9360    6.2360   28.8967 C   0  0  0  0  0  0  0  0  0  0  0  0
   10.5489    6.6682   30.1947 C   0  0  0  0  0  0  0  0  0  0  0  0
    9.1050    5.0337   28.9265 C   0  0  0  0  0  0  0  0  0  0  0  0
    8.5324    4.6003   27.7908 C   0  0  0  0  0  0  0  0  0  0  0  0
    8.7369    5.3070   26.6042 N   0  0  0  0  0  0  0  0  0  0  0  0
    8.2913    5.0491   25.3228 C   0  0  0  0  0  0  0  0  0  0  0  0
    7.4627    3.9323   24.9593 C   0  0  0  0  0  0  0  0  0  0  0  0
    6.4968    3.5902   25.6391 O   0  0  0  0  0  0  0  0  0  0  0  0
    7.8195    3.2183   23.8303 N   0  0  0  0  0  0  0  0  0  0  0  0
    8.9506    3.4612   22.9473 C   0  0  0  0  0  0  0  0  0  0  0  0
    9.2063    2.1116   22.2856 C   0  0  0  0  0  0  0  0  0  0  0  0
    7.7965    1.5139   22.1745 C   0  0  2  0  0  0  0  0  0  0  0  0
    7.1623    1.9586   23.5060 C   0  0  0  0  0  0  0  0  0  0  0  0
    7.8351   -0.0041   21.9851 C   0  0  0  0  0  0  0  0  0  0  0  0
    6.5075   -0.5734   21.7919 N   0  0  0  0  0  0  0  0  0  0  0  0
    6.3656   -2.0097   21.9436 C   0  0  0  0  0  0  0  0  0  0  0  0
    5.5935    0.1011   20.9835 C   0  0  0  0  0  0  0  0  0  0  0  0
    4.5907   -0.4320   20.5110 O   0  0  0  0  0  0  0  0  0  0  0  0
    5.8745    1.6021   20.7705 C   0  0  0  0  0  0  0  0  0  0  0  0
    7.1751    2.1138   21.0266 O   0  0  0  0  0  0  0  0  0  0  0  0
  1  2  1  0
  2  3  1  0
  3  4  2  0
  4  5  1  0
  5  6  2  0
  6  7  1  0
  6  8  1  0
  8  9  2  0
  9 10  1  0
 10 11  1  0
 11 12  1  0
 12 13  2  0
 12 14  1  0
 14 15  1  0
 15 16  1  0
 17 16  1  1
 17 18  1  0
 17 19  1  0
 19 20  1  0
 20 21  1  0
 20 22  1  0
 22 23  2  0
 22 24  1  0
 24 25  1  0
 11  2  2  0
 18 14  1  0
 10  4  1  0
 25 17  1  0
M  END
