
     RDKit          3D

 25 28  0  0  0  0  0  0  0  0999 V2000
    8.1144    2.7516   29.4773 C   0  0  0  0  0  0  0  0  0  0  0  0
    7.9109    3.3986   28.1593 C   0  0  0  0  0  0  0  0  0  0  0  0
    7.5643    4.7290   28.1106 N   0  0  0  0  0  0  0  0  0  0  0  0
    7.3639    4.9936   26.8387 C   0  0  0  0  0  0  0  0  0  0  0  0
    6.9685    6.1968   26.1878 C   0  0  0  0  0  0  0  0  0  0  0  0
    6.8080    6.2257   24.8468 C   0  0  0  0  0  0  0  0  0  0  0  0
    6.3890    7.4615   24.1090 C   0  0  0  0  0  0  0  0  0  0  0  0
    7.0368    5.0240   24.0463 C   0  0  0  0  0  0  0  0  0  0  0  0
    7.4157    3.8884   24.6564 C   0  0  0  0  0  0  0  0  0  0  0  0
    7.5797    3.8740   26.0427 N   0  0  0  0  0  0  0  0  0  0  0  0
    7.9870    2.8570   26.8836 C   0  0  0  0  0  0  0  0  0  0  0  0
    8.3242    1.5289   26.4494 C   0  0  0  0  0  0  0  0  0  0  0  0
    9.4533    1.0640   26.5940 O   0  0  0  0  0  0  0  0  0  0  0  0
    7.3119    0.7654   25.8980 N   0  0  0  0  0  0  0  0  0  0  0  0
    5.9213    1.1458   25.6987 C   0  0  0  0  0  0  0  0  0  0  0  0
    5.1738   -0.1818   25.6416 C   0  0  0  0  0  0  0  0  0  0  0  0
    6.1932   -1.1188   24.9784 C   0  0  1  0  0  0  0  0  0  0  0  0
    7.5125   -0.6514   25.6216 C   0  0  0  0  0  0  0  0  0  0  0  0
    5.8665   -2.5909   25.2386 C   0  0  0  0  0  0  0  0  0  0  0  0
    6.7760   -3.4928   24.5432 N   0  0  0  0  0  0  0  0  0  0  0  0
    6.7982   -4.8804   24.9673 C   0  0  0  0  0  0  0  0  0  0  0  0
    7.1578   -3.1929   23.2362 C   0  0  0  0  0  0  0  0  0  0  0  0
    7.6497   -4.0212   22.4715 O   0  0  0  0  0  0  0  0  0  0  0  0
    6.9955   -1.7179   22.8174 C   0  0  0  0  0  0  0  0  0  0  0  0
    6.1359   -0.8687   23.5650 O   0  0  0  0  0  0  0  0  0  0  0  0
  1  2  1  0
  2  3  1  0
  3  4  2  0
  4  5  1  0
  5  6  2  0
  6  7  1  0
  6  8  1  0
  8  9  2  0
  9 10  1  0
 10 11  1  0
 11 12  1  0
 12 13  2  0
 12 14  1  0
 14 15  1  0
 15 16  1  0
 17 16  1  1
 17 18  1  0
 17 19  1  0
 19 20  1  0
 20 21  1  0
 20 22  1  0
 22 23  2  0
 22 24  1  0
 24 25  1  0
 11  2  2  0
 18 14  1  0
 10  4  1  0
 25 17  1  0
M  END
