
     RDKit          3D

 35 39  0  0  0  0  0  0  0  0999 V2000
    1.9503    8.0580   25.5422 C   0  0  0  0  0  0  0  0  0  0  0  0
    2.7860    6.9230   25.7210 O   0  0  0  0  0  0  0  0  0  0  0  0
    3.1215    6.5774   27.0029 C   0  0  0  0  0  0  0  0  0  0  0  0
    2.2256    6.0625   27.9474 C   0  0  0  0  0  0  0  0  0  0  0  0
    2.6674    5.7033   29.2268 C   0  0  0  0  0  0  0  0  0  0  0  0
    4.0071    5.8573   29.5792 C   0  0  0  0  0  0  0  0  0  0  0  0
    4.9055    6.3883   28.6560 C   0  0  0  0  0  0  0  0  0  0  0  0
    6.2269    6.4814   29.0086 O   0  0  0  0  0  0  0  0  0  0  0  0
    6.5632    7.8385   29.3046 C   0  0  0  0  0  0  0  0  0  0  0  0
    4.4701    6.7277   27.3678 C   0  0  0  0  0  0  0  0  0  0  0  0
    5.4386    7.2846   26.4049 C   0  0  0  0  0  0  0  0  0  0  0  0
    5.4025    8.4958   26.1959 O   0  0  0  0  0  0  0  0  0  0  0  0
    6.3524    6.4192   25.8048 N   0  0  0  0  0  0  0  0  0  0  0  0
    7.3042    6.9975   24.8516 C   0  0  0  0  0  0  0  0  0  0  0  0
    8.5907    6.1682   24.7159 C   0  0  0  0  0  0  0  0  0  0  0  0
    8.2634    4.7445   24.4238 N   0  0  0  0  0  0  0  0  0  0  0  0
    9.2414    3.9491   23.7800 C   0  0  0  0  0  0  0  0  0  0  0  0
    9.0134    2.6480   23.4720 C   0  0  0  0  0  0  0  0  0  0  0  0
    7.7478    1.9079   23.8206 C   0  0  0  0  0  0  0  0  0  0  0  0
    7.7192    1.2007   25.1637 C   0  0  0  0  0  0  0  0  0  0  0  0
    6.6242    0.4576   25.6300 C   0  0  0  0  0  0  0  0  0  0  0  0
    6.6721   -0.1824   26.8717 C   0  0  0  0  0  0  0  0  0  0  0  0
    7.8154   -0.0974   27.6608 C   0  0  0  0  0  0  0  0  0  0  0  0
    8.9152    0.6262   27.2099 C   0  0  0  0  0  0  0  0  0  0  0  0
    8.8679    1.2677   25.9703 C   0  0  0  0  0  0  0  0  0  0  0  0
   10.1667    1.9090   22.8285 C   0  0  0  0  0  0  0  0  0  0  0  0
   10.0124    0.4304   22.5346 C   0  0  0  0  0  0  0  0  0  0  0  0
   11.3128    2.4336   22.5158 N   0  0  0  0  0  0  0  0  0  0  0  0
   11.4876    3.7512   22.7998 C   0  0  0  0  0  0  0  0  0  0  0  0
   12.5396    4.5067   22.5683 N   0  0  0  0  0  0  0  0  0  0  0  0
   12.1744    5.7161   23.0621 C   0  0  0  0  0  0  0  0  0  0  0  0
   10.9580    5.7854   23.5972 N   0  0  0  0  0  0  0  0  0  0  0  0
   10.4958    4.5122   23.4299 N   0  0  0  0  0  0  0  0  0  0  0  0
    7.4444    4.1809   25.5290 C   0  0  0  0  0  0  0  0  0  0  0  0
    6.1310    4.9715   25.6759 C   0  0  0  0  0  0  0  0  0  0  0  0
  1  2  1  0
  2  3  1  0
  3  4  2  0
  4  5  1  0
  5  6  2  0
  6  7  1  0
  7  8  1  0
  8  9  1  0
  7 10  2  0
 10 11  1  0
 11 12  2  0
 11 13  1  0
 13 14  1  0
 14 15  1  0
 15 16  1  0
 16 17  1  0
 17 18  2  0
 18 19  1  0
 19 20  1  0
 20 21  2  0
 21 22  1  0
 22 23  2  0
 23 24  1  0
 24 25  2  0
 18 26  1  0
 26 27  1  0
 26 28  2  0
 28 29  1  0
 29 30  2  0
 30 31  1  0
 31 32  2  0
 32 33  1  0
 16 34  1  0
 34 35  1  0
 10  3  1  0
 35 13  1  0
 33 17  1  0
 25 20  1  0
 33 29  1  0
M  END
