
     RDKit          3D

 23 24  0  0  0  0  0  0  0  0999 V2000
    2.2722    9.6499   14.2707 C   0  0  0  0  0  0  0  0  0  0  0  0
    2.9461    8.5277   14.8214 O   0  0  0  0  0  0  0  0  0  0  0  0
    2.6944    8.2157   16.1327 C   0  0  0  0  0  0  0  0  0  0  0  0
    3.0937    8.9846   17.2292 C   0  0  0  0  0  0  0  0  0  0  0  0
    2.7872    8.5848   18.5397 C   0  0  0  0  0  0  0  0  0  0  0  0
    3.2348    9.4259   19.5839 N   0  0  0  0  0  0  0  0  0  0  0  0
    3.9789    9.0736   20.6986 C   0  0  0  0  0  0  0  0  0  0  0  0
    4.4336    7.9628   20.9512 O   0  0  0  0  0  0  0  0  0  0  0  0
    4.2622   10.2691   21.5948 C   0  0  0  0  0  0  0  0  0  0  0  0
    5.5274   10.0337   22.4186 C   0  0  1  0  0  0  0  0  0  0  0  0
    6.1959   11.6664   22.9756 S   0  0  0  0  0  0  0  0  0  0  0  0
    7.3661   11.1136   24.2754 C   0  0  0  0  0  0  0  0  0  0  0  0
    7.5436    9.5986   24.3462 C   0  0  0  0  0  0  0  0  0  0  0  0
    6.2767    8.9165   24.4828 N   0  0  0  0  0  0  0  0  0  0  0  0
    5.2210    9.1587   23.6390 C   0  0  0  0  0  0  0  0  0  0  0  0
    4.1183    8.6740   23.8797 O   0  0  0  0  0  0  0  0  0  0  0  0
    2.0755    7.3989   18.7472 C   0  0  0  0  0  0  0  0  0  0  0  0
    1.6644    6.6125   17.6655 C   0  0  0  0  0  0  0  0  0  0  0  0
    0.9684    5.4347   17.7721 O   0  0  0  0  0  0  0  0  0  0  0  0
    1.5227    4.4198   18.5988 C   0  0  0  0  0  0  0  0  0  0  0  0
    1.9636    7.0398   16.3620 C   0  0  0  0  0  0  0  0  0  0  0  0
    1.6005    6.2545   15.2895 O   0  0  0  0  0  0  0  0  0  0  0  0
    2.5887    5.2489   15.0724 C   0  0  0  0  0  0  0  0  0  0  0  0
  1  2  1  0
  2  3  1  0
  3  4  2  0
  4  5  1  0
  5  6  1  0
  6  7  1  0
  7  8  2  0
  7  9  1  0
 10  9  1  1
 10 11  1  0
 11 12  1  0
 12 13  1  0
 13 14  1  0
 14 15  1  0
 15 16  2  0
  5 17  2  0
 17 18  1  0
 18 19  1  0
 19 20  1  0
 18 21  2  0
 21 22  1  0
 22 23  1  0
 21  3  1  0
 15 10  1  0
M  END
