
     RDKit          3D

 30 31  0  0  0  0  0  0  0  0999 V2000
    5.1030    1.5731   29.6970 C   0  0  0  0  0  0  0  0  0  0  0  0
    6.1296    1.2830   28.7575 O   0  0  0  0  0  0  0  0  0  0  0  0
    5.9698    0.1743   27.9679 C   0  0  0  0  0  0  0  0  0  0  0  0
    5.1889   -0.9332   28.2963 C   0  0  0  0  0  0  0  0  0  0  0  0
    5.1097   -2.0248   27.4198 C   0  0  0  0  0  0  0  0  0  0  0  0
    4.2666   -3.1823   27.8218 C   0  0  0  0  0  0  0  0  0  0  0  0
    4.7376   -4.3129   27.8327 O   0  0  0  0  0  0  0  0  0  0  0  0
    2.9557   -2.9012   28.1329 N   0  0  0  0  0  0  0  0  0  0  0  0
    2.0179   -3.9446   28.5431 C   0  0  2  0  0  0  0  0  0  0  0  0
    2.5585   -4.7602   29.7251 C   0  0  0  0  0  0  0  0  0  0  0  0
    2.6975   -3.9041   30.9509 C   0  0  0  0  0  0  0  0  0  0  0  0
    2.8637   -2.6975   31.0002 O   0  0  0  0  0  0  0  0  0  0  0  0
    2.6654   -4.6342   32.0845 O   0  0  0  0  0  0  0  0  0  0  0  0
    1.6935   -4.8052   27.3289 C   0  0  0  0  0  0  0  0  0  0  0  0
    1.0652   -6.0467   27.5024 C   0  0  0  0  0  0  0  0  0  0  0  0
    0.7436   -6.8532   26.4036 C   0  0  0  0  0  0  0  0  0  0  0  0
    1.0390   -6.4290   25.1105 C   0  0  0  0  0  0  0  0  0  0  0  0
    0.7873   -7.1076   23.9523 O   0  0  0  0  0  0  0  0  0  0  0  0
    0.1574   -8.3913   24.0142 C   0  0  0  0  0  0  0  0  0  0  0  0
    0.0165   -8.8791   22.5736 C   0  0  0  0  0  0  0  0  0  0  0  0
    1.0270   -9.3615   24.8088 C   0  0  0  0  0  0  0  0  0  0  0  0
    1.6668   -5.1949   24.9302 C   0  0  0  0  0  0  0  0  0  0  0  0
    1.9909   -4.3874   26.0237 C   0  0  0  0  0  0  0  0  0  0  0  0
    5.7887   -2.0070   26.1927 C   0  0  0  0  0  0  0  0  0  0  0  0
    6.5757   -0.9075   25.8482 C   0  0  0  0  0  0  0  0  0  0  0  0
    7.2855   -0.7872   24.6817 O   0  0  0  0  0  0  0  0  0  0  0  0
    6.7792    0.0919   23.6867 C   0  0  0  0  0  0  0  0  0  0  0  0
    6.6505    0.1810   26.7370 C   0  0  0  0  0  0  0  0  0  0  0  0
    7.4653    1.2473   26.4222 O   0  0  0  0  0  0  0  0  0  0  0  0
    8.7821    1.0143   26.9194 C   0  0  0  0  0  0  0  0  0  0  0  0
  1  2  1  0
  2  3  1  0
  3  4  2  0
  4  5  1  0
  5  6  1  0
  6  7  2  0
  6  8  1  0
  8  9  1  0
  9 10  1  1
 10 11  1  0
 11 12  2  0
 11 13  1  0
  9 14  1  0
 14 15  2  0
 15 16  1  0
 16 17  2  0
 17 18  1  0
 18 19  1  0
 19 20  1  0
 19 21  1  0
 17 22  1  0
 22 23  2  0
  5 24  2  0
 24 25  1  0
 25 26  1  0
 26 27  1  0
 25 28  2  0
 28 29  1  0
 29 30  1  0
 28  3  1  0
 23 14  1  0
M  END
