
     RDKit          3D

 23 22  0  0  0  0  0  0  0  0999 V2000
    5.4588    0.7738   18.5236 C   0  0  0  0  0  0  0  0  0  0  0  0
    5.5917   -0.0714   19.7802 C   0  0  0  0  0  0  0  0  0  0  0  0
    5.7511   -1.5651   19.5006 C   0  0  0  0  0  0  0  0  0  0  0  0
    5.9136   -2.4106   20.7615 C   0  0  0  0  0  0  0  0  0  0  0  0
    5.7838   -3.8047   20.4356 O   0  0  0  0  0  0  0  0  0  0  0  0
    6.2899   -4.6785   21.3535 C   0  0  0  0  0  0  0  0  0  0  0  0
    6.7576   -5.7817   21.0962 O   0  0  0  0  0  0  0  0  0  0  0  0
    6.1512   -4.0869   22.7553 C   0  0  0  0  0  0  0  0  0  0  0  0
    6.4106   -5.0884   23.8126 N   0  0  0  0  0  0  0  0  0  0  0  0
    7.8458   -5.2536   24.0627 C   0  0  0  0  0  0  0  0  0  0  0  0
    8.0868   -5.3408   25.5719 C   0  0  0  0  0  0  0  0  0  0  0  0
    9.4413   -5.9534   25.9398 C   0  0  0  0  0  0  0  0  0  0  0  0
   10.5106   -4.9785   26.4437 C   0  0  0  0  0  0  0  0  0  0  0  0
   11.2246   -4.2243   25.3177 C   0  0  0  0  0  0  0  0  0  0  0  0
   12.1431   -3.2083   25.8465 N   0  0  0  0  0  0  0  0  0  0  0  0
   12.2994   -2.0530   24.9324 C   0  0  0  0  0  0  0  0  0  0  0  0
   13.6218   -1.3234   25.1625 C   0  0  0  0  0  0  0  0  0  0  0  0
   14.3649   -1.5041   26.1202 O   0  0  0  0  0  0  0  0  0  0  0  0
   13.8349   -0.4201   24.1633 O   0  0  0  0  0  0  0  0  0  0  0  0
   13.2267    0.8579   24.3887 C   0  0  0  0  0  0  0  0  0  0  0  0
   13.5587    1.7841   23.2226 C   0  0  0  0  0  0  0  0  0  0  0  0
   13.3349    3.2575   23.5688 C   0  0  0  0  0  0  0  0  0  0  0  0
   12.9474    4.0627   22.3390 C   0  0  0  0  0  0  0  0  0  0  0  0
  1  2  1  0
  2  3  1  0
  3  4  1  0
  4  5  1  0
  5  6  1  0
  6  7  2  0
  6  8  1  0
  8  9  1  0
  9 10  1  0
 10 11  1  0
 11 12  1  0
 12 13  1  0
 13 14  1  0
 14 15  1  0
 15 16  1  0
 16 17  1  0
 17 18  2  0
 17 19  1  0
 19 20  1  0
 20 21  1  0
 21 22  1  0
 22 23  1  0
M  END
