
     RDKit          3D

 31 34  0  0  0  0  0  0  0  0999 V2000
    9.3494    1.1510   25.1838 C   0  0  0  0  0  0  0  0  0  0  0  0
    8.7285    0.0364   24.5507 O   0  0  0  0  0  0  0  0  0  0  0  0
    8.4580   -1.0336   25.3660 C   0  0  0  0  0  0  0  0  0  0  0  0
    7.3065   -1.1396   26.1504 C   0  0  0  0  0  0  0  0  0  0  0  0
    7.0965   -2.2665   26.9605 C   0  0  0  0  0  0  0  0  0  0  0  0
    5.8463   -2.3841   27.8096 C   0  0  0  0  0  0  0  0  0  0  0  0
    5.5723   -1.1684   28.5990 N   0  0  0  0  0  0  0  0  0  0  0  0
    6.2151   -1.2343   29.9220 C   0  0  0  0  0  0  0  0  0  0  0  0
    5.9548    0.0440   30.7206 C   0  0  0  0  0  0  0  0  0  0  0  0
    4.4624    0.3260   30.8576 C   0  0  0  0  0  0  0  0  0  0  0  0
    3.7889    0.3308   29.4811 C   0  0  2  0  0  0  0  0  0  0  0  0
    2.2755    0.4889   29.6172 C   0  0  0  0  0  0  0  0  0  0  0  0
    1.7189    0.2367   30.6897 O   0  0  0  0  0  0  0  0  0  0  0  0
    1.5485    0.9373   28.5189 N   0  0  0  0  0  0  0  0  0  0  0  0
    0.1003    1.1419   28.4823 C   0  0  0  0  0  0  0  0  0  0  0  0
   -0.2680    2.3837   27.6728 C   0  0  0  0  0  0  0  0  0  0  0  0
    0.3633    2.3534   26.3077 C   0  0  0  0  0  0  0  0  0  0  0  0
   -0.2040    3.0788   25.2515 C   0  0  0  0  0  0  0  0  0  0  0  0
    0.3982    3.0789   23.9940 C   0  0  0  0  0  0  0  0  0  0  0  0
    1.5774    2.3659   23.7867 C   0  0  0  0  0  0  0  0  0  0  0  0
    2.1536    1.6503   24.8351 C   0  0  0  0  0  0  0  0  0  0  0  0
    1.5580    1.6410   26.1063 C   0  0  0  0  0  0  0  0  0  0  0  0
    2.2216    0.8651   27.2213 C   0  0  0  0  0  0  0  0  0  0  0  0
    4.1139   -0.9831   28.7444 C   0  0  0  0  0  0  0  0  0  0  0  0
    8.0640   -3.2859   26.9892 C   0  0  0  0  0  0  0  0  0  0  0  0
    9.2284   -3.1905   26.2241 C   0  0  0  0  0  0  0  0  0  0  0  0
   10.2247   -4.1324   26.1981 O   0  0  0  0  0  0  0  0  0  0  0  0
   10.8874   -4.4072   27.4261 C   0  0  0  0  0  0  0  0  0  0  0  0
    9.4268   -2.0462   25.4324 C   0  0  0  0  0  0  0  0  0  0  0  0
   10.5533   -1.9637   24.6424 O   0  0  0  0  0  0  0  0  0  0  0  0
   10.1796   -2.0208   23.2663 C   0  0  0  0  0  0  0  0  0  0  0  0
  1  2  1  0
  2  3  1  0
  3  4  2  0
  4  5  1  0
  5  6  1  0
  6  7  1  0
  7  8  1  0
  8  9  1  0
  9 10  1  0
 10 11  1  0
 11 12  1  1
 12 13  2  0
 12 14  1  0
 14 15  1  0
 15 16  1  0
 16 17  1  0
 17 18  2  0
 18 19  1  0
 19 20  2  0
 20 21  1  0
 21 22  2  0
 22 23  1  0
 11 24  1  0
  5 25  2  0
 25 26  1  0
 26 27  1  0
 27 28  1  0
 26 29  2  0
 29 30  1  0
 30 31  1  0
 29  3  1  0
 24  7  1  0
 23 14  1  0
 22 17  1  0
M  END
