
     RDKit          3D

 33 35  0  0  0  0  0  0  0  0999 V2000
    6.9865    6.5124   22.8544 C   0  0  0  0  0  0  0  0  0  0  0  0
    8.2189    6.2522   23.7190 C   0  0  0  0  0  0  0  0  0  0  0  0
    8.4580    4.7463   23.8804 C   0  0  0  0  0  0  0  0  0  0  0  0
    9.7146    4.4561   24.7018 C   0  0  0  0  0  0  0  0  0  0  0  0
   10.9631    5.1645   24.1659 C   0  0  0  0  0  0  0  0  0  0  0  0
   11.3699    4.5269   22.9066 N   0  0  0  0  0  0  0  0  0  0  0  0
   12.8413    3.7430   22.7836 S   0  0  0  0  0  0  0  0  0  0  0  0
   13.6859    4.1722   23.8746 O   0  0  0  0  0  0  0  0  0  0  0  0
   13.2551    3.8515   21.4034 O   0  0  0  0  0  0  0  0  0  0  0  0
   12.3760    2.0527   23.0544 C   0  0  0  0  0  0  0  0  0  0  0  0
   11.0889    1.6192   22.7452 C   0  0  0  0  0  0  0  0  0  0  0  0
   10.7283    0.2855   22.9791 C   0  0  0  0  0  0  0  0  0  0  0  0
   11.6208   -0.6386   23.5537 C   0  0  0  0  0  0  0  0  0  0  0  0
   11.2734   -1.9912   23.7049 N   0  0  0  0  0  0  0  0  0  0  0  0
   10.8887   -2.5170   25.0156 C   0  0  0  0  0  0  0  0  0  0  0  0
    9.9938   -3.7639   24.8500 C   0  0  0  0  0  0  0  0  0  0  0  0
   10.4855   -4.9706   25.6637 C   0  0  0  0  0  0  0  0  0  0  0  0
   10.2999   -4.7872   27.1727 C   0  0  0  0  0  0  0  0  0  0  0  0
    8.9782   -4.3267   27.5861 N   0  0  0  0  0  0  0  0  0  0  0  0
    8.0545   -5.3705   28.0481 C   0  0  0  0  0  0  0  0  0  0  0  0
    8.4286   -6.1456   29.3327 C   0  0  0  0  0  0  0  0  0  0  0  0
    7.4001   -7.1191   29.7616 N   0  0  0  0  0  0  0  0  0  0  0  0
    6.1375   -6.4247   30.0304 C   0  0  0  0  0  0  0  0  0  0  0  0
    7.8136   -7.8664   30.9510 C   0  0  0  0  0  0  0  0  0  0  0  0
    8.3916   -3.2725   26.7682 C   0  0  0  0  0  0  0  0  0  0  0  0
    8.5447   -3.4680   25.2591 C   0  0  0  0  0  0  0  0  0  0  0  0
   12.9284   -0.1637   23.8248 C   0  0  0  0  0  0  0  0  0  0  0  0
   13.9488   -1.0575   24.3747 N   0  0  0  0  0  0  0  0  0  0  0  0
   14.2557   -0.9218   25.5698 O   0  0  0  0  0  0  0  0  0  0  0  0
   14.4567   -1.8848   23.6036 O   0  0  0  0  0  0  0  0  0  0  0  0
   13.3074    1.1701   23.5960 C   0  0  0  0  0  0  0  0  0  0  0  0
   10.7117    6.6586   23.9441 C   0  0  0  0  0  0  0  0  0  0  0  0
    9.4524    6.9416   23.1240 C   0  0  0  0  0  0  0  0  0  0  0  0
  1  2  1  0
  2  3  1  0
  3  4  1  0
  4  5  1  0
  5  6  1  0
  6  7  1  0
  7  8  2  0
  7  9  2  0
  7 10  1  0
 10 11  2  0
 11 12  1  0
 12 13  2  0
 13 14  1  0
 14 15  1  0
 15 16  1  0
 16 17  1  0
 17 18  1  0
 18 19  1  0
 19 20  1  0
 20 21  1  0
 21 22  1  0
 22 23  1  0
 22 24  1  0
 19 25  1  0
 25 26  1  0
 13 27  1  0
 27 28  1  0
 28 29  2  0
 28 30  1  0
 27 31  2  0
  5 32  1  0
 32 33  1  0
 33  2  1  0
 31 10  1  0
 26 16  1  0
M  CHG  2  28   1  30  -1
M  END
