
     RDKit          3D

 23 24  0  0  0  0  0  0  0  0999 V2000
   -1.3465    5.2567   25.0667 C   0  0  0  0  0  0  0  0  0  0  0  0
   -1.6107    5.8407   26.3417 O   0  0  0  0  0  0  0  0  0  0  0  0
   -0.4689    6.3724   26.8833 C   0  0  0  0  0  0  0  0  0  0  0  0
    0.7726    6.0932   26.3190 C   0  0  0  0  0  0  0  0  0  0  0  0
    1.9207    6.6138   26.9176 C   0  0  0  0  0  0  0  0  0  0  0  0
    3.2334    6.3306   26.3031 C   0  0  0  0  0  0  0  0  0  0  0  0
    3.6444    7.1221   25.4585 O   0  0  0  0  0  0  0  0  0  0  0  0
    3.9439    5.1998   26.7168 N   0  0  0  0  0  0  0  0  0  0  0  0
    5.2431    4.9470   26.0877 C   0  0  0  0  0  0  0  0  0  0  0  0
    5.1909    3.7993   25.0825 C   0  0  2  0  0  0  0  0  0  0  0  0
    4.4883    4.1683   23.7815 C   0  0  0  0  0  0  0  0  0  0  0  0
    4.5067    2.6142   25.7348 C   0  0  0  0  0  0  0  0  0  0  0  0
    4.9628    1.4745   25.6331 O   0  0  0  0  0  0  0  0  0  0  0  0
    3.1945    2.8707   26.4409 C   0  0  0  0  0  0  0  0  0  0  0  0
    3.3253    4.0493   27.4056 C   0  0  1  0  0  0  0  0  0  0  0  0
    4.0868    3.6701   28.6783 C   0  0  0  0  0  0  0  0  0  0  0  0
    1.8404    7.4332   28.0539 C   0  0  0  0  0  0  0  0  0  0  0  0
    0.5965    7.7048   28.6275 C   0  0  0  0  0  0  0  0  0  0  0  0
    0.4067    8.4707   29.7474 O   0  0  0  0  0  0  0  0  0  0  0  0
   -0.1382    7.8206   30.8882 C   0  0  0  0  0  0  0  0  0  0  0  0
   -0.5556    7.1430   28.0511 C   0  0  0  0  0  0  0  0  0  0  0  0
   -1.7903    7.4381   28.5787 O   0  0  0  0  0  0  0  0  0  0  0  0
   -1.9698    8.8520   28.6304 C   0  0  0  0  0  0  0  0  0  0  0  0
  1  2  1  0
  2  3  1  0
  3  4  2  0
  4  5  1  0
  5  6  1  0
  6  7  2  0
  6  8  1  0
  8  9  1  0
  9 10  1  0
 10 11  1  6
 10 12  1  0
 12 13  2  0
 12 14  1  0
 14 15  1  0
 15 16  1  1
  5 17  2  0
 17 18  1  0
 18 19  1  0
 19 20  1  0
 18 21  2  0
 21 22  1  0
 22 23  1  0
 21  3  1  0
 15  8  1  0
M  END
