
     RDKit          3D

 23 26  0  0  0  0  0  0  0  0999 V2000
    9.9976   -6.0421   25.3357 C   0  0  0  0  0  0  0  0  0  0  0  0
    8.6306   -5.7470   25.0852 O   0  0  0  0  0  0  0  0  0  0  0  0
    8.1129   -4.6062   25.6437 C   0  0  0  0  0  0  0  0  0  0  0  0
    7.8462   -4.4396   27.0176 C   0  0  0  0  0  0  0  0  0  0  0  0
    7.3024   -3.2462   27.5125 C   0  0  0  0  0  0  0  0  0  0  0  0
    7.0411   -2.2207   26.6193 C   0  0  0  0  0  0  0  0  0  0  0  0
    7.3086   -2.3804   25.2566 C   0  0  0  0  0  0  0  0  0  0  0  0
    7.8520   -3.5501   24.7522 C   0  0  0  0  0  0  0  0  0  0  0  0
    8.0480   -3.7094   23.4086 O   0  0  0  0  0  0  0  0  0  0  0  0
    6.8998   -4.3049   22.8057 C   0  0  0  0  0  0  0  0  0  0  0  0
    6.9600   -1.1176   24.5715 C   0  0  0  0  0  0  0  0  0  0  0  0
    7.1079   -0.9122   23.3820 O   0  0  0  0  0  0  0  0  0  0  0  0
    6.5299   -0.2468   25.5634 N   0  0  0  0  0  0  0  0  0  0  0  0
    6.2653    1.1312   25.4736 C   0  0  0  0  0  0  0  0  0  0  0  0
    6.0498    1.7827   24.2579 C   0  0  0  0  0  0  0  0  0  0  0  0
    5.7632    3.1516   24.2373 C   0  0  0  0  0  0  0  0  0  0  0  0
    5.7031    3.8803   25.4260 C   0  0  0  0  0  0  0  0  0  0  0  0
    5.9443    3.2463   26.6440 C   0  0  0  0  0  0  0  0  0  0  0  0
    6.2308    1.8776   26.6655 C   0  0  0  0  0  0  0  0  0  0  0  0
    6.6030    1.2240   27.9515 C   0  0  0  0  0  0  0  0  0  0  0  0
    6.6224    1.8321   29.0140 O   0  0  0  0  0  0  0  0  0  0  0  0
    6.9585   -0.1048   27.8920 N   0  0  0  0  0  0  0  0  0  0  0  0
    6.4048   -0.8916   26.8423 C   0  0  2  0  0  0  0  0  0  0  0  0
  1  2  1  0
  2  3  1  0
  3  4  2  0
  4  5  1  0
  5  6  2  0
  6  7  1  0
  7  8  2  0
  8  9  1  0
  9 10  1  0
  7 11  1  0
 11 12  2  0
 11 13  1  0
 13 14  1  0
 14 15  2  0
 15 16  1  0
 16 17  2  0
 17 18  1  0
 18 19  2  0
 19 20  1  0
 20 21  2  0
 20 22  1  0
 23 22  1  1
  8  3  1  0
 23 13  1  0
 23  6  1  0
 19 14  1  0
M  END
