
     RDKit          3D

 23 24  0  0  0  0  0  0  0  0999 V2000
    5.4581   -2.6858   19.1409 O   0  0  0  0  0  0  0  0  0  0  0  0
    5.8369   -2.7688   20.2968 C   0  0  0  0  0  0  0  0  0  0  0  0
    5.7480   -3.9368   20.9635 O   0  0  0  0  0  0  0  0  0  0  0  0
    6.4158   -1.6741   21.1518 C   0  0  0  0  0  0  0  0  0  0  0  0
    7.1469   -0.6303   20.3072 C   0  0  0  0  0  0  0  0  0  0  0  0
    7.6523    0.5735   21.1111 C   0  0  0  0  0  0  0  0  0  0  0  0
    8.8534    0.3093   22.0268 C   0  0  0  0  0  0  0  0  0  0  0  0
    9.2388    1.5175   22.8907 C   0  0  0  0  0  0  0  0  0  0  0  0
   10.6836    1.4922   23.1919 N   0  0  0  0  0  0  0  0  0  0  0  0
   10.9368    1.0046   24.5612 C   0  0  0  0  0  0  0  0  0  0  0  0
   12.0221   -0.0548   24.6072 C   0  0  0  0  0  0  0  0  0  0  0  0
   12.8350   -0.1934   25.7427 C   0  0  0  0  0  0  0  0  0  0  0  0
   13.8437   -1.1570   25.7806 C   0  0  0  0  0  0  0  0  0  0  0  0
   14.0483   -1.9955   24.6869 C   0  0  0  0  0  0  0  0  0  0  0  0
   13.2429   -1.8739   23.5562 C   0  0  0  0  0  0  0  0  0  0  0  0
   12.2322   -0.9115   23.5168 C   0  0  0  0  0  0  0  0  0  0  0  0
   11.3488    2.7617   22.8544 C   0  0  1  0  0  0  0  0  0  0  0  0
   10.9020    4.0072   23.6434 C   0  0  0  0  0  0  0  0  0  0  0  0
   11.8017    5.1386   23.1594 C   0  0  0  0  0  0  0  0  0  0  0  0
   13.4078    4.3934   22.9246 S   0  0  0  0  0  0  0  0  0  0  0  0
   14.2273    4.6884   24.0817 O   0  0  0  0  0  0  0  0  0  0  0  0
   13.8487    4.6731   21.5739 O   0  0  0  0  0  0  0  0  0  0  0  0
   12.8736    2.6916   23.0195 C   0  0  0  0  0  0  0  0  0  0  0  0
  1  2  2  0
  2  3  1  0
  2  4  1  0
  4  5  1  0
  5  6  1  0
  6  7  1  0
  7  8  1  0
  8  9  1  0
  9 10  1  0
 10 11  1  0
 11 12  2  0
 12 13  1  0
 13 14  2  0
 14 15  1  0
 15 16  2  0
 17  9  1  1
 17 18  1  0
 18 19  1  0
 19 20  1  0
 20 21  2  0
 20 22  2  0
 20 23  1  0
 16 11  1  0
 23 17  1  0
M  END
