
     RDKit          3D

 24 25  0  0  0  0  0  0  0  0999 V2000
    7.3106   -2.7934   27.1325 C   0  0  0  0  0  0  0  0  0  0  0  0
    7.4162   -4.2242   27.6537 C   0  0  0  0  0  0  0  0  0  0  0  0
    8.7984   -4.7107   27.7903 N   0  0  0  0  0  0  0  0  0  0  0  0
    9.0611   -5.2608   29.1301 C   0  0  0  0  0  0  0  0  0  0  0  0
    8.2668   -6.5322   29.4131 C   0  0  0  0  0  0  0  0  0  0  0  0
    9.2101   -5.6544   26.7296 C   0  0  0  0  0  0  0  0  0  0  0  0
    9.9882   -5.0500   25.5493 C   0  0  0  0  0  0  0  0  0  0  0  0
   11.3312   -4.4464   25.9795 C   0  0  0  0  0  0  0  0  0  0  0  0
   11.8479   -3.5295   24.9639 N   0  0  0  0  0  0  0  0  0  0  0  0
   12.1937   -2.1998   25.5129 C   0  0  2  0  0  0  0  0  0  0  0  0
   11.0439   -1.1979   25.3612 C   0  0  0  0  0  0  0  0  0  0  0  0
   11.4691    0.2016   25.8187 C   0  0  0  0  0  0  0  0  0  0  0  0
   12.6733    0.7236   25.1541 N   0  0  0  0  0  0  0  0  0  0  0  0
   12.3976    1.1080   23.7570 C   0  0  0  0  0  0  0  0  0  0  0  0
   12.3352    2.6037   23.5560 C   0  0  0  0  0  0  0  0  0  0  0  0
   13.4933    3.3908   23.6482 C   0  0  0  0  0  0  0  0  0  0  0  0
   13.4264    4.7751   23.4716 C   0  0  0  0  0  0  0  0  0  0  0  0
   12.2030    5.3889   23.2028 C   0  0  0  0  0  0  0  0  0  0  0  0
   11.0463    4.6172   23.1083 C   0  0  0  0  0  0  0  0  0  0  0  0
   11.1201    3.2380   23.2848 C   0  0  0  0  0  0  0  0  0  0  0  0
    9.9953    2.5156   23.1793 F   0  0  0  0  0  0  0  0  0  0  0  0
   13.7783   -0.2424   25.2768 C   0  0  0  0  0  0  0  0  0  0  0  0
   13.4530   -1.6664   24.7893 C   0  0  1  0  0  0  0  0  0  0  0  0
   14.5558   -2.5440   25.0628 O   0  0  0  0  0  0  0  0  0  0  0  0
  1  2  1  0
  2  3  1  0
  3  4  1  0
  4  5  1  0
  3  6  1  0
  6  7  1  0
  7  8  1  0
  8  9  1  0
 10  9  1  6
 10 11  1  0
 11 12  1  0
 12 13  1  0
 13 14  1  0
 14 15  1  0
 15 16  2  0
 16 17  1  0
 17 18  2  0
 18 19  1  0
 19 20  2  0
 20 21  1  0
 13 22  1  0
 22 23  1  0
 23 24  1  1
 23 10  1  0
 20 15  1  0
M  END
