
     RDKit          3D

 24 25  0  0  0  0  0  0  0  0999 V2000
    7.0699   -4.1041   26.6593 C   0  0  0  0  0  0  0  0  0  0  0  0
    7.7909   -5.4462   26.5684 C   0  0  0  0  0  0  0  0  0  0  0  0
    9.1445   -5.4018   27.1482 N   0  0  0  0  0  0  0  0  0  0  0  0
    9.1137   -5.1639   28.6028 C   0  0  0  0  0  0  0  0  0  0  0  0
    8.3010   -6.2574   29.2828 C   0  0  0  0  0  0  0  0  0  0  0  0
    9.9671   -4.3991   26.4431 C   0  0  0  0  0  0  0  0  0  0  0  0
   11.4718   -4.6857   26.5604 C   0  0  0  0  0  0  0  0  0  0  0  0
   12.3495   -3.5280   26.0649 C   0  0  0  0  0  0  0  0  0  0  0  0
   11.8273   -2.9496   24.8234 N   0  0  0  0  0  0  0  0  0  0  0  0
   12.4920   -1.6962   24.3908 C   0  0  2  0  0  0  0  0  0  0  0  0
   12.8715   -0.7360   25.5198 C   0  0  0  0  0  0  0  0  0  0  0  0
   13.6232    0.4758   24.9590 C   0  0  0  0  0  0  0  0  0  0  0  0
   12.8251    1.1847   23.9479 N   0  0  0  0  0  0  0  0  0  0  0  0
   13.5501    2.3773   23.4733 C   0  0  0  0  0  0  0  0  0  0  0  0
   12.7052    3.6329   23.4910 C   0  0  0  0  0  0  0  0  0  0  0  0
   13.2879    4.8883   23.7275 C   0  0  0  0  0  0  0  0  0  0  0  0
   12.5029    6.0449   23.7500 C   0  0  0  0  0  0  0  0  0  0  0  0
   11.1281    5.9573   23.5390 C   0  0  0  0  0  0  0  0  0  0  0  0
   10.5492    4.7154   23.3066 C   0  0  0  0  0  0  0  0  0  0  0  0
    9.2272    4.6322   23.1066 F   0  0  0  0  0  0  0  0  0  0  0  0
   11.3201    3.5584   23.2815 C   0  0  0  0  0  0  0  0  0  0  0  0
   12.4803    0.2882   22.8253 C   0  0  0  0  0  0  0  0  0  0  0  0
   11.7008   -0.9505   23.2947 C   0  0  1  0  0  0  0  0  0  0  0  0
   11.4818   -1.8422   22.1963 O   0  0  0  0  0  0  0  0  0  0  0  0
  1  2  1  0
  2  3  1  0
  3  4  1  0
  4  5  1  0
  3  6  1  0
  6  7  1  0
  7  8  1  0
  8  9  1  0
 10  9  1  1
 10 11  1  0
 11 12  1  0
 12 13  1  0
 13 14  1  0
 14 15  1  0
 15 16  2  0
 16 17  1  0
 17 18  2  0
 18 19  1  0
 19 20  1  0
 19 21  2  0
 13 22  1  0
 22 23  1  0
 23 24  1  6
 23 10  1  0
 21 15  1  0
M  END
