
     RDKit          3D

 29 30  0  0  0  0  0  0  0  0999 V2000
   -2.6910   10.5498   19.6250 C   0  0  0  0  0  0  0  0  0  0  0  0
   -1.5656   10.3574   20.4728 O   0  0  0  0  0  0  0  0  0  0  0  0
   -1.1303    9.0717   20.6647 C   0  0  0  0  0  0  0  0  0  0  0  0
   -0.6062    8.2490   19.6639 C   0  0  0  0  0  0  0  0  0  0  0  0
   -0.1715    6.9482   19.9623 C   0  0  0  0  0  0  0  0  0  0  0  0
    0.3761    6.0561   18.9301 C   0  0  0  0  0  0  0  0  0  0  0  0
    1.5162    6.3006   18.2666 C   0  0  0  0  0  0  0  0  0  0  0  0
    2.2901    7.5227   18.5628 C   0  0  0  0  0  0  0  0  0  0  0  0
    3.3351    7.8469   18.0248 O   0  0  0  0  0  0  0  0  0  0  0  0
    1.6335    8.2107   19.5307 O   0  0  0  0  0  0  0  0  0  0  0  0
    2.2951    9.4253   19.9040 C   0  0  0  0  0  0  0  0  0  0  0  0
    2.4395   10.3831   18.7179 C   0  0  0  0  0  0  0  0  0  0  0  0
    1.6083   10.3906   17.8149 O   0  0  0  0  0  0  0  0  0  0  0  0
    3.5606   11.1881   18.8113 N   0  0  0  0  0  0  0  0  0  0  0  0
    4.0033   12.1752   17.9094 C   0  0  0  0  0  0  0  0  0  0  0  0
    5.1820   12.8561   18.2396 C   0  0  0  0  0  0  0  0  0  0  0  0
    5.6849   13.8525   17.4020 C   0  0  0  0  0  0  0  0  0  0  0  0
    5.0142   14.1719   16.2230 C   0  0  0  0  0  0  0  0  0  0  0  0
    3.8425   13.4947   15.8704 C   0  0  0  0  0  0  0  0  0  0  0  0
    3.0254   13.9647   14.3511 S   0  0  0  0  0  0  0  0  0  0  0  0
    1.6111   12.8287   14.3527 C   0  0  0  0  0  0  0  0  0  0  0  0
    3.3353   12.5079   16.7274 C   0  0  0  0  0  0  0  0  0  0  0  0
   -0.3012    6.4583   21.2705 C   0  0  0  0  0  0  0  0  0  0  0  0
   -0.8265    7.2626   22.2854 C   0  0  0  0  0  0  0  0  0  0  0  0
   -0.9787    6.8731   23.5908 O   0  0  0  0  0  0  0  0  0  0  0  0
    0.0781    7.1845   24.4902 C   0  0  0  0  0  0  0  0  0  0  0  0
   -1.2111    8.5773   21.9773 C   0  0  0  0  0  0  0  0  0  0  0  0
   -1.7592    9.3696   22.9629 O   0  0  0  0  0  0  0  0  0  0  0  0
   -3.1596    9.1125   23.0643 C   0  0  0  0  0  0  0  0  0  0  0  0
  1  2  1  0
  2  3  1  0
  3  4  2  0
  4  5  1  0
  5  6  1  0
  6  7  2  0
  7  8  1  0
  8  9  2  0
  8 10  1  0
 10 11  1  0
 11 12  1  0
 12 13  2  0
 12 14  1  0
 14 15  1  0
 15 16  2  0
 16 17  1  0
 17 18  2  0
 18 19  1  0
 19 20  1  0
 20 21  1  0
 19 22  2  0
  5 23  2  0
 23 24  1  0
 24 25  1  0
 25 26  1  0
 24 27  2  0
 27 28  1  0
 28 29  1  0
 27  3  1  0
 22 15  1  0
M  END
