
     RDKit          3D

 24 25  0  0  0  0  0  0  0  0999 V2000
   14.6022   -2.9317   26.0410 C   0  0  0  0  0  0  0  0  0  0  0  0
   13.1850   -2.5854   25.8192 C   0  0  0  0  0  0  0  0  0  0  0  0
   12.0333   -3.3295   25.6869 C   0  0  0  0  0  0  0  0  0  0  0  0
   10.9823   -2.4034   25.4831 C   0  0  0  0  0  0  0  0  0  0  0  0
   11.5549   -1.1480   25.5108 C   0  0  0  0  0  0  0  0  0  0  0  0
   11.0108    0.2333   25.3489 C   0  0  0  0  0  0  0  0  0  0  0  0
   11.3737    0.9257   24.0925 N   0  0  0  0  0  0  0  0  0  0  0  0
   12.6756    1.6213   24.1414 C   0  0  0  0  0  0  0  0  0  0  0  0
   12.7715    2.8166   23.1820 C   0  0  0  0  0  0  0  0  0  0  0  0
   11.8524    3.9793   23.5918 C   0  0  0  0  0  0  0  0  0  0  0  0
   11.7623    5.0751   22.6133 N   0  0  0  0  0  0  0  0  0  0  0  0
   13.1053    5.5349   22.2483 C   0  0  0  0  0  0  0  0  0  0  0  0
   10.9780    6.2026   23.1233 C   0  0  0  0  0  0  0  0  0  0  0  0
   11.3226    0.0325   22.9199 C   0  0  0  0  0  0  0  0  0  0  0  0
   10.0205    0.0821   22.1810 C   0  0  0  0  0  0  0  0  0  0  0  0
    9.3669    1.2587   21.9021 C   0  0  0  0  0  0  0  0  0  0  0  0
    8.2031    1.3321   21.2242 N   0  0  0  0  0  0  0  0  0  0  0  0
    7.6472    0.1819   20.8028 C   0  0  0  0  0  0  0  0  0  0  0  0
    6.4279    0.2308   20.1223 N   0  0  0  0  0  0  0  0  0  0  0  0
    5.2636    0.0173   20.9650 C   0  0  0  0  0  0  0  0  0  0  0  0
    6.4380   -0.4375   18.8321 C   0  0  0  0  0  0  0  0  0  0  0  0
    8.2171   -1.0154   21.0325 N   0  0  0  0  0  0  0  0  0  0  0  0
    9.3807   -1.0410   21.7143 C   0  0  0  0  0  0  0  0  0  0  0  0
   12.9010   -1.2588   25.7095 O   0  0  0  0  0  0  0  0  0  0  0  0
  1  2  1  0
  2  3  2  0
  3  4  1  0
  4  5  2  0
  5  6  1  0
  6  7  1  0
  7  8  1  0
  8  9  1  0
  9 10  1  0
 10 11  1  0
 11 12  1  0
 11 13  1  0
  7 14  1  0
 14 15  1  0
 15 16  2  0
 16 17  1  0
 17 18  2  0
 18 19  1  0
 19 20  1  0
 19 21  1  0
 18 22  1  0
 22 23  2  0
  5 24  1  0
 24  2  1  0
 23 15  1  0
M  END
