
     RDKit          3D

 23 25  0  0  0  0  0  0  0  0999 V2000
   10.7786   -4.6910   25.4690 O   0  0  0  0  0  0  0  0  0  0  0  0
    9.9568   -3.9269   24.9706 C   0  0  0  0  0  0  0  0  0  0  0  0
    8.5501   -4.0481   25.4131 C   0  0  0  0  0  0  0  0  0  0  0  0
    8.1592   -3.6207   26.6890 C   0  0  0  0  0  0  0  0  0  0  0  0
    6.8205   -3.7213   27.0704 C   0  0  0  0  0  0  0  0  0  0  0  0
    5.8839   -4.2315   26.1733 C   0  0  0  0  0  0  0  0  0  0  0  0
    4.6042   -4.3202   26.5635 F   0  0  0  0  0  0  0  0  0  0  0  0
    6.2684   -4.6346   24.8942 C   0  0  0  0  0  0  0  0  0  0  0  0
    5.1082   -5.2550   23.7845 Cl  0  0  0  0  0  0  0  0  0  0  0  0
    7.6036   -4.5372   24.5052 C   0  0  0  0  0  0  0  0  0  0  0  0
   10.2886   -2.9556   24.0338 N   0  0  0  0  0  0  0  0  0  0  0  0
   11.6988   -2.6826   23.7599 C   0  0  0  0  0  0  0  0  0  0  0  0
   12.1058   -1.3026   24.3100 C   0  0  1  0  0  0  0  0  0  0  0  0
   12.5787   -1.3722   25.7803 C   0  0  0  0  0  0  0  0  0  0  0  0
   14.0256   -1.8235   25.6850 C   0  0  0  0  0  0  0  0  0  0  0  0
   14.4538   -1.2598   24.4412 N   0  0  0  0  0  0  0  0  0  0  0  0
   13.4027   -0.9114   23.6192 C   0  0  0  0  0  0  0  0  0  0  0  0
   13.5201   -0.4190   22.5120 O   0  0  0  0  0  0  0  0  0  0  0  0
   11.0065   -0.2379   24.1200 C   0  0  0  0  0  0  0  0  0  0  0  0
    9.9647   -0.6505   23.0883 C   0  0  0  0  0  0  0  0  0  0  0  0
    8.9916    0.2935   23.0255 F   0  0  0  0  0  0  0  0  0  0  0  0
   10.5284   -0.7064   21.8571 F   0  0  0  0  0  0  0  0  0  0  0  0
    9.3344   -2.0098   23.4264 C   0  0  0  0  0  0  0  0  0  0  0  0
  1  2  2  0
  2  3  1  0
  3  4  2  0
  4  5  1  0
  5  6  2  0
  6  7  1  0
  6  8  1  0
  8  9  1  0
  8 10  2  0
  2 11  1  0
 11 12  1  0
 13 12  1  6
 13 14  1  0
 14 15  1  0
 15 16  1  0
 16 17  1  0
 17 18  2  0
 13 19  1  0
 19 20  1  0
 20 21  1  0
 20 22  1  0
 20 23  1  0
 10  3  1  0
 23 11  1  0
 17 13  1  0
M  END
