
     RDKit          3D

 24 26  0  0  0  0  0  0  0  0999 V2000
   12.9000    5.8893   22.4655 C   0  0  0  0  0  0  0  0  0  0  0  0
   13.7061    4.7616   22.7803 O   0  0  0  0  0  0  0  0  0  0  0  0
   12.9455    3.5585   22.9356 C   0  0  0  0  0  0  0  0  0  0  0  0
   13.8514    2.3645   23.2853 C   0  0  0  0  0  0  0  0  0  0  0  0
   13.1552    1.0752   23.2498 N   0  0  0  0  0  0  0  0  0  0  0  0
   13.9477   -0.0442   23.7861 C   0  0  0  0  0  0  0  0  0  0  0  0
   12.9476   -0.9413   24.5370 C   0  0  2  0  0  0  0  0  0  0  0  0
   13.2099   -2.4289   24.3051 C   0  0  0  0  0  0  0  0  0  0  0  0
   14.5141   -2.7933   24.7649 O   0  0  0  0  0  0  0  0  0  0  0  0
   14.5277   -3.2140   26.1231 C   0  0  0  0  0  0  0  0  0  0  0  0
   11.5560   -0.3998   24.1347 C   0  0  0  0  0  0  0  0  0  0  0  0
   11.8943    1.0964   23.9946 C   0  0  0  0  0  0  0  0  0  0  0  0
   10.5057   -0.6425   25.2312 C   0  0  0  0  0  0  0  0  0  0  0  0
    9.1169   -0.1444   24.8215 C   0  0  0  0  0  0  0  0  0  0  0  0
    8.6689   -0.7735   23.5735 N   0  0  0  0  0  0  0  0  0  0  0  0
    7.3002   -0.3247   23.2469 C   0  0  0  0  0  0  0  0  0  0  0  0
    6.8115   -0.8309   21.9308 C   0  0  0  0  0  0  0  0  0  0  0  0
    6.2479   -2.0229   21.5226 C   0  0  0  0  0  0  0  0  0  0  0  0
    6.0139   -1.9017   20.1318 C   0  0  0  0  0  0  0  0  0  0  0  0
    6.4568   -0.6476   19.7726 C   0  0  0  0  0  0  0  0  0  0  0  0
    6.5029    0.0874   18.4941 C   0  0  0  0  0  0  0  0  0  0  0  0
    6.9512    0.0052   20.8604 O   0  0  0  0  0  0  0  0  0  0  0  0
    9.6072   -0.5087   22.4733 C   0  0  0  0  0  0  0  0  0  0  0  0
   11.0180   -1.0020   22.8145 C   0  0  0  0  0  0  0  0  0  0  0  0
  1  2  1  0
  2  3  1  0
  3  4  1  0
  4  5  1  0
  5  6  1  0
  6  7  1  0
  7  8  1  6
  8  9  1  0
  9 10  1  0
  7 11  1  0
 11 12  1  0
 11 13  1  0
 13 14  1  0
 14 15  1  0
 15 16  1  0
 16 17  1  0
 17 18  2  0
 18 19  1  0
 19 20  2  0
 20 21  1  0
 20 22  1  0
 15 23  1  0
 23 24  1  0
 12  5  1  0
 22 17  1  0
 24 11  1  0
M  END
