
     RDKit          3D

 25 28  0  0  0  0  0  0  0  0999 V2000
    9.2174    7.2794   24.7043 C   0  0  0  0  0  0  0  0  0  0  0  0
   10.1607    6.3442   24.0482 C   0  0  0  0  0  0  0  0  0  0  0  0
    9.9576    4.9861   23.7223 C   0  0  0  0  0  0  0  0  0  0  0  0
   11.1295    4.5720   23.1218 C   0  0  0  0  0  0  0  0  0  0  0  0
   11.5203    3.2402   22.5776 C   0  0  0  0  0  0  0  0  0  0  0  0
   12.0458    2.3389   23.6156 N   0  0  0  0  0  0  0  0  0  0  0  0
   13.2778    1.6666   23.1703 C   0  0  0  0  0  0  0  0  0  0  0  0
   13.8444    0.7659   24.2721 C   0  0  0  0  0  0  0  0  0  0  0  0
   12.8219   -0.2929   24.7762 C   0  0  0  0  0  0  0  0  0  0  0  0
   13.3810   -1.0099   26.0165 C   0  0  0  0  0  0  0  0  0  0  0  0
   14.3967   -1.8843   25.4354 N   0  0  0  0  0  0  0  0  0  0  0  0
   14.9004   -2.8721   26.3762 C   0  0  0  0  0  0  0  0  0  0  0  0
   13.7841   -2.4887   24.2469 C   0  0  0  0  0  0  0  0  0  0  0  0
   12.7180   -1.4745   23.7643 C   0  0  1  0  0  0  0  0  0  0  0  0
   11.3532   -2.1726   23.6836 C   0  0  0  0  0  0  0  0  0  0  0  0
   11.1675   -2.9504   24.8673 O   0  0  0  0  0  0  0  0  0  0  0  0
    9.7862   -3.1449   25.1663 C   0  0  0  0  0  0  0  0  0  0  0  0
    9.6053   -4.2702   26.1400 C   0  0  0  0  0  0  0  0  0  0  0  0
   10.0703   -5.6714   25.8304 C   0  0  0  0  0  0  0  0  0  0  0  0
   10.7721   -4.8633   26.8896 C   0  0  0  0  0  0  0  0  0  0  0  0
   11.5168    0.4460   25.1177 C   0  0  0  0  0  0  0  0  0  0  0  0
   11.0269    1.3474   23.9813 C   0  0  0  0  0  0  0  0  0  0  0  0
   11.9452    5.6751   23.1201 N   0  0  0  0  0  0  0  0  0  0  0  0
   13.2794    5.7863   22.5780 C   0  0  0  0  0  0  0  0  0  0  0  0
   11.3778    6.7603   23.6844 N   0  0  0  0  0  0  0  0  0  0  0  0
  1  2  1  0
  2  3  1  0
  3  4  2  0
  4  5  1  0
  5  6  1  0
  6  7  1  0
  7  8  1  0
  8  9  1  0
  9 10  1  0
 10 11  1  0
 11 12  1  0
 11 13  1  0
 13 14  1  0
 14 15  1  1
 15 16  1  0
 16 17  1  0
 17 18  1  0
 18 19  1  0
 19 20  1  0
  9 21  1  0
 21 22  1  0
  4 23  1  0
 23 24  1  0
 23 25  1  0
 25  2  2  0
 22  6  1  0
 14  9  1  0
 20 18  1  0
M  END
