
     RDKit          3D

 24 27  0  0  0  0  0  0  0  0999 V2000
    7.5757    8.6466   23.7774 C   0  0  0  0  0  0  0  0  0  0  0  0
    8.5950    7.7268   24.3500 C   0  0  0  0  0  0  0  0  0  0  0  0
    9.7139    7.3875   23.7465 N   0  0  0  0  0  0  0  0  0  0  0  0
   10.4432    6.5163   24.5487 C   0  0  0  0  0  0  0  0  0  0  0  0
   11.7648    6.0037   24.0539 C   0  0  0  0  0  0  0  0  0  0  0  0
   11.5748    4.8009   23.2323 N   0  0  0  0  0  0  0  0  0  0  0  0
   10.6075    3.8607   23.8134 C   0  0  0  0  0  0  0  0  0  0  0  0
   10.8723    2.6215   22.9717 C   0  0  2  0  0  0  0  0  0  0  0  0
   10.4777    1.3089   23.6181 C   0  0  0  0  0  0  0  0  0  0  0  0
   11.6505    0.8882   24.3702 N   0  0  0  0  0  0  0  0  0  0  0  0
   11.7846   -0.2468   25.1472 C   0  0  0  0  0  0  0  0  0  0  0  0
   12.8157   -0.5478   25.7410 O   0  0  0  0  0  0  0  0  0  0  0  0
   10.6367   -1.1638   25.2558 C   0  0  0  0  0  0  0  0  0  0  0  0
    9.3952   -0.6439   25.6127 C   0  0  0  0  0  0  0  0  0  0  0  0
    8.3313   -1.5225   25.6785 C   0  0  0  0  0  0  0  0  0  0  0  0
    8.4337   -2.8416   25.4095 N   0  0  0  0  0  0  0  0  0  0  0  0
    9.6481   -3.2973   25.0351 C   0  0  0  0  0  0  0  0  0  0  0  0
    9.7566   -4.6020   24.7470 F   0  0  0  0  0  0  0  0  0  0  0  0
   10.7746   -2.5094   24.9365 C   0  0  0  0  0  0  0  0  0  0  0  0
   12.8262    1.6659   24.0152 C   0  0  0  0  0  0  0  0  0  0  0  0
   12.3968    2.5922   22.8761 C   0  0  2  0  0  0  0  0  0  0  0  0
   12.8276    4.0465   23.0695 C   0  0  0  0  0  0  0  0  0  0  0  0
    9.8465    6.2148   25.7596 C   0  0  0  0  0  0  0  0  0  0  0  0
    8.3489    7.0305   25.9012 S   0  0  0  0  0  0  0  0  0  0  0  0
  1  2  1  0
  2  3  2  0
  3  4  1  0
  4  5  1  0
  5  6  1  0
  6  7  1  0
  8  7  1  1
  8  9  1  0
  9 10  1  0
 10 11  1  0
 11 12  2  0
 11 13  1  0
 13 14  2  0
 14 15  1  0
 15 16  2  0
 16 17  1  0
 17 18  1  0
 17 19  2  0
 10 20  1  0
 21 20  1  1
 21 22  1  0
  4 23  2  0
 23 24  1  0
 24  2  1  0
 22  6  1  0
 21  8  1  0
 19 13  1  0
M  END
