
     RDKit          3D

 20 21  0  0  0  0  0  0  0  0999 V2000
    8.7652   -1.4535   25.7024 C   0  0  0  0  0  0  0  0  0  0  0  0
    9.4880   -0.6682   24.6710 C   0  0  0  0  0  0  0  0  0  0  0  0
   10.4724   -1.0573   23.7807 C   0  0  0  0  0  0  0  0  0  0  0  0
   10.8238    0.0754   23.0038 C   0  0  0  0  0  0  0  0  0  0  0  0
   10.0491    1.1395   23.4316 C   0  0  0  0  0  0  0  0  0  0  0  0
   10.0177    2.5442   22.9520 C   0  0  0  0  0  0  0  0  0  0  0  0
    9.2781    0.6665   24.4590 N   0  0  0  0  0  0  0  0  0  0  0  0
    8.2755    1.3536   25.0363 N   0  0  0  0  0  0  0  0  0  0  0  0
    7.1834    1.7122   24.2786 C   0  0  0  0  0  0  0  0  0  0  0  0
    7.0528    1.4740   23.0804 O   0  0  0  0  0  0  0  0  0  0  0  0
    6.1344    2.4817   25.0622 C   0  0  0  0  0  0  0  0  0  0  0  0
    4.5922    2.6237   24.1149 S   0  0  0  0  0  0  0  0  0  0  0  0
    3.9855    4.2048   24.6463 C   0  0  0  0  0  0  0  0  0  0  0  0
    4.4863    4.7673   25.7633 N   0  0  0  0  0  0  0  0  0  0  0  0
    3.9853    5.9733   26.1139 C   0  0  0  0  0  0  0  0  0  0  0  0
    4.5324    6.6155   27.3545 C   0  0  0  0  0  0  0  0  0  0  0  0
    2.9942    6.6037   25.3891 C   0  0  0  0  0  0  0  0  0  0  0  0
    2.5353    5.9444   24.2672 C   0  0  0  0  0  0  0  0  0  0  0  0
    1.4588    6.5507   23.4185 C   0  0  0  0  0  0  0  0  0  0  0  0
    3.0226    4.7477   23.8872 N   0  0  0  0  0  0  0  0  0  0  0  0
  1  2  1  0
  2  3  2  0
  3  4  1  0
  4  5  2  0
  5  6  1  0
  5  7  1  0
  7  8  1  0
  8  9  1  0
  9 10  2  0
  9 11  1  0
 11 12  1  0
 12 13  1  0
 13 14  2  0
 14 15  1  0
 15 16  1  0
 15 17  2  0
 17 18  1  0
 18 19  1  0
 18 20  2  0
  7  2  1  0
 20 13  1  0
M  END
