
     RDKit          3D

 17 18  0  0  0  0  0  0  0  0999 V2000
   13.9773    3.9404   24.2914 O   0  0  0  0  0  0  0  0  0  0  0  0
   13.2788    3.3914   23.1461 S   0  0  0  0  0  0  0  0  0  0  0  0
   13.8532    3.4994   21.8236 O   0  0  0  0  0  0  0  0  0  0  0  0
   11.6736    4.1285   23.1206 C   0  0  0  0  0  0  0  0  0  0  0  0
   10.5578    3.3511   22.7847 C   0  0  0  0  0  0  0  0  0  0  0  0
    9.2909    3.9328   22.8038 C   0  0  0  0  0  0  0  0  0  0  0  0
    7.7791    2.8985   22.3395 Br  0  0  0  0  0  0  0  0  0  0  0  0
    9.1282    5.2712   23.1635 C   0  0  0  0  0  0  0  0  0  0  0  0
   10.2447    6.0341   23.5098 C   0  0  0  0  0  0  0  0  0  0  0  0
   11.5132    5.4579   23.4918 C   0  0  0  0  0  0  0  0  0  0  0  0
   12.5609    6.2292   23.8069 F   0  0  0  0  0  0  0  0  0  0  0  0
   12.9763    1.7512   23.4850 N   0  0  0  0  0  0  0  0  0  0  0  0
   12.1332    1.4550   24.6781 C   0  0  0  0  0  0  0  0  0  0  0  0
   11.4449    0.0962   24.5378 C   0  0  0  0  0  0  0  0  0  0  0  0
   12.6503   -1.2693   24.4336 S   0  0  0  0  0  0  0  0  0  0  0  0
   13.6432   -0.6077   23.0545 C   0  0  0  0  0  0  0  0  0  0  0  0
   14.1270    0.8166   23.3310 C   0  0  0  0  0  0  0  0  0  0  0  0
  1  2  2  0
  2  3  2  0
  2  4  1  0
  4  5  2  0
  5  6  1  0
  6  7  1  0
  6  8  2  0
  8  9  1  0
  9 10  2  0
 10 11  1  0
  2 12  1  0
 12 13  1  0
 13 14  1  0
 14 15  1  0
 15 16  1  0
 16 17  1  0
 10  4  1  0
 17 12  1  0
M  END
