
     RDKit          3D

 18 19  0  0  0  0  0  0  0  0999 V2000
    7.4937    6.9092   24.1031 C   0  0  0  0  0  0  0  0  0  0  0  0
    8.9306    6.3990   24.1791 C   0  0  0  0  0  0  0  0  0  0  0  0
    8.9651    4.9166   24.5709 C   0  0  0  0  0  0  0  0  0  0  0  0
   10.3951    4.3808   24.5795 C   0  0  0  0  0  0  0  0  0  0  0  0
   11.0054    4.5804   23.2342 N   0  0  0  0  0  0  0  0  0  0  0  0
   12.5016    3.7758   23.0023 S   0  0  0  0  0  0  0  0  0  0  0  0
   13.4164    4.2690   24.0106 O   0  0  0  0  0  0  0  0  0  0  0  0
   12.8355    3.8207   21.5953 O   0  0  0  0  0  0  0  0  0  0  0  0
   12.0997    2.0899   23.3804 C   0  0  0  0  0  0  0  0  0  0  0  0
   10.9478    1.5052   22.8531 C   0  0  0  0  0  0  0  0  0  0  0  0
   10.6577    0.1717   23.1530 C   0  0  0  0  0  0  0  0  0  0  0  0
   11.4848   -0.5722   24.0057 C   0  0  0  0  0  0  0  0  0  0  0  0
   11.2244   -1.9428   24.1749 N   0  0  0  0  0  0  0  0  0  0  0  0
   12.6638    0.0285   24.4870 C   0  0  0  0  0  0  0  0  0  0  0  0
   13.8806   -0.9447   25.5754 Br  0  0  0  0  0  0  0  0  0  0  0  0
   12.9645    1.3602   24.1980 C   0  0  0  0  0  0  0  0  0  0  0  0
   11.0695    6.0275   22.8827 C   0  0  0  0  0  0  0  0  0  0  0  0
    9.6558    6.6043   22.8435 C   0  0  0  0  0  0  0  0  0  0  0  0
  1  2  1  0
  2  3  1  0
  3  4  1  0
  4  5  1  0
  5  6  1  0
  6  7  2  0
  6  8  2  0
  6  9  1  0
  9 10  2  0
 10 11  1  0
 11 12  2  0
 12 13  1  0
 12 14  1  0
 14 15  1  0
 14 16  2  0
  5 17  1  0
 17 18  1  0
 18  2  1  0
 16  9  1  0
M  END
