
     RDKit          3D

 25 27  0  0  0  0  0  0  0  0999 V2000
    3.1969    7.1522   23.9245 C   0  0  0  0  0  0  0  0  0  0  0  0
    3.5169    6.9955   25.3024 O   0  0  0  0  0  0  0  0  0  0  0  0
    4.1897    5.8617   25.6726 C   0  0  0  0  0  0  0  0  0  0  0  0
    3.6577    4.5703   25.6162 C   0  0  0  0  0  0  0  0  0  0  0  0
    4.4093    3.4708   26.0556 C   0  0  0  0  0  0  0  0  0  0  0  0
    3.7937    2.1199   25.9691 C   0  0  0  0  0  0  0  0  0  0  0  0
    3.5895    1.6066   24.8762 O   0  0  0  0  0  0  0  0  0  0  0  0
    3.4566    1.5257   27.1608 N   0  0  0  0  0  0  0  0  0  0  0  0
    2.8529    0.2135   27.1838 C   0  0  0  0  0  0  0  0  0  0  0  0
    3.6677   -0.7455   28.0195 C   0  0  0  0  0  0  0  0  0  0  0  0
    3.1375   -1.1519   29.2585 C   0  0  0  0  0  0  0  0  0  0  0  0
    3.8417   -2.0265   30.0802 C   0  0  0  0  0  0  0  0  0  0  0  0
    5.0846   -2.5061   29.6780 C   0  0  0  0  0  0  0  0  0  0  0  0
    5.6477   -2.1141   28.4552 C   0  0  0  0  0  0  0  0  0  0  0  0
    6.9039   -2.6094   28.0709 C   0  0  0  0  0  0  0  0  0  0  0  0
    7.4842   -2.2317   26.8618 C   0  0  0  0  0  0  0  0  0  0  0  0
    6.8145   -1.3506   26.0217 C   0  0  0  0  0  0  0  0  0  0  0  0
    5.5624   -0.8518   26.3881 C   0  0  0  0  0  0  0  0  0  0  0  0
    4.9448   -1.2195   27.6061 C   0  0  0  0  0  0  0  0  0  0  0  0
    5.7091    3.6526   26.5351 C   0  0  0  0  0  0  0  0  0  0  0  0
    6.2500    4.9377   26.5823 C   0  0  0  0  0  0  0  0  0  0  0  0
    8.0163    5.1398   27.2478 Br  0  0  0  0  0  0  0  0  0  0  0  0
    5.5047    6.0379   26.1369 C   0  0  0  0  0  0  0  0  0  0  0  0
    6.0513    7.2974   26.2329 O   0  0  0  0  0  0  0  0  0  0  0  0
    5.5325    7.9893   27.3681 C   0  0  0  0  0  0  0  0  0  0  0  0
  1  2  1  0
  2  3  1  0
  3  4  2  0
  4  5  1  0
  5  6  1  0
  6  7  2  0
  6  8  1  0
  8  9  1  0
  9 10  1  0
 10 11  2  0
 11 12  1  0
 12 13  2  0
 13 14  1  0
 14 15  2  0
 15 16  1  0
 16 17  2  0
 17 18  1  0
 18 19  2  0
  5 20  2  0
 20 21  1  0
 21 22  1  0
 21 23  2  0
 23 24  1  0
 24 25  1  0
 23  3  1  0
 19 10  1  0
 19 14  1  0
M  END
