
     RDKit          3D

 35 38  0  0  0  0  0  0  0  0999 V2000
    9.0106    7.0338   22.5226 C   0  0  0  0  0  0  0  0  0  0  0  0
    8.9099    6.2384   23.7007 O   0  0  0  0  0  0  0  0  0  0  0  0
    7.6560    5.8124   24.0588 C   0  0  0  0  0  0  0  0  0  0  0  0
    6.6903    6.6180   24.6721 C   0  0  0  0  0  0  0  0  0  0  0  0
    5.4383    6.0987   25.0102 C   0  0  0  0  0  0  0  0  0  0  0  0
    4.4211    6.8521   25.6322 N   0  0  0  0  0  0  0  0  0  0  0  0
    3.9086    8.0804   25.2444 C   0  0  0  0  0  0  0  0  0  0  0  0
    4.2552    8.7500   24.2725 O   0  0  0  0  0  0  0  0  0  0  0  0
    2.8067    8.5826   26.1774 C   0  0  0  0  0  0  0  0  0  0  0  0
    1.4926    8.1599   25.6850 N   0  0  0  0  0  0  0  0  0  0  0  0
    0.8322    7.0467   26.2050 C   0  0  0  0  0  0  0  0  0  0  0  0
    1.2539    6.1668   27.2431 C   0  0  0  0  0  0  0  0  0  0  0  0
    0.3279    5.1657   27.4805 C   0  0  0  0  0  0  0  0  0  0  0  0
   -1.0414    5.3080   26.4603 S   0  0  0  0  0  0  0  0  0  0  0  0
   -0.3959    6.6918   25.7129 C   0  0  0  0  0  0  0  0  0  0  0  0
   -1.0719    7.4162   24.6721 C   0  0  0  0  0  0  0  0  0  0  0  0
   -2.1658    7.0947   24.2103 O   0  0  0  0  0  0  0  0  0  0  0  0
   -0.3689    8.5453   24.2330 N   0  0  0  0  0  0  0  0  0  0  0  0
   -0.9746    9.3524   23.1788 C   0  0  0  0  0  0  0  0  0  0  0  0
   -1.7485   10.5426   23.6981 C   0  0  0  0  0  0  0  0  0  0  0  0
   -2.2393   10.5868   25.0139 C   0  0  0  0  0  0  0  0  0  0  0  0
   -2.9870   11.6837   25.4518 C   0  0  0  0  0  0  0  0  0  0  0  0
   -3.2628   12.7428   24.5885 C   0  0  0  0  0  0  0  0  0  0  0  0
   -2.7889   12.7067   23.2781 C   0  0  0  0  0  0  0  0  0  0  0  0
   -2.0419   11.6141   22.8434 C   0  0  0  0  0  0  0  0  0  0  0  0
   -1.6089   11.6006   21.5740 F   0  0  0  0  0  0  0  0  0  0  0  0
    0.8681    8.9630   24.7266 C   0  0  0  0  0  0  0  0  0  0  0  0
    1.4051   10.0175   24.3615 O   0  0  0  0  0  0  0  0  0  0  0  0
    5.1441    4.7556   24.7203 C   0  0  0  0  0  0  0  0  0  0  0  0
    6.0909    3.9326   24.1031 C   0  0  0  0  0  0  0  0  0  0  0  0
    5.8985    2.6122   23.7856 O   0  0  0  0  0  0  0  0  0  0  0  0
    4.6667    2.0201   24.1746 C   0  0  0  0  0  0  0  0  0  0  0  0
    7.3391    4.4775   23.7591 C   0  0  0  0  0  0  0  0  0  0  0  0
    8.2898    3.6533   23.1962 O   0  0  0  0  0  0  0  0  0  0  0  0
    9.0971    3.0685   24.2171 C   0  0  0  0  0  0  0  0  0  0  0  0
  1  2  1  0
  2  3  1  0
  3  4  2  0
  4  5  1  0
  5  6  1  0
  6  7  1  0
  7  8  2  0
  7  9  1  0
  9 10  1  0
 10 11  1  0
 11 12  1  0
 12 13  2  0
 13 14  1  0
 14 15  1  0
 15 16  1  0
 16 17  2  0
 16 18  1  0
 18 19  1  0
 19 20  1  0
 20 21  2  0
 21 22  1  0
 22 23  2  0
 23 24  1  0
 24 25  2  0
 25 26  1  0
 18 27  1  0
 27 28  2  0
  5 29  2  0
 29 30  1  0
 30 31  1  0
 31 32  1  0
 30 33  2  0
 33 34  1  0
 34 35  1  0
 33  3  1  0
 27 10  1  0
 15 11  2  0
 25 20  1  0
M  END
