
     RDKit          3D

 27 30  0  0  0  0  0  0  0  0999 V2000
   -0.9553   -3.0707   30.3604 C   0  0  0  0  0  0  0  0  0  0  0  0
    0.0955   -2.1606   30.6546 O   0  0  0  0  0  0  0  0  0  0  0  0
    1.1207   -2.0681   29.7504 C   0  0  0  0  0  0  0  0  0  0  0  0
    1.5169   -3.0864   28.8829 C   0  0  0  0  0  0  0  0  0  0  0  0
    2.5885   -2.8912   28.0002 C   0  0  0  0  0  0  0  0  0  0  0  0
    3.2893   -1.6732   27.9486 C   0  0  0  0  0  0  0  0  0  0  0  0
    4.4148   -1.5136   27.0075 C   0  0  0  0  0  0  0  0  0  0  0  0
    4.2114   -0.9424   25.7323 C   0  0  0  0  0  0  0  0  0  0  0  0
    5.2528   -0.7677   24.8092 C   0  0  0  0  0  0  0  0  0  0  0  0
    6.5026   -1.1930   25.2324 C   0  0  0  0  0  0  0  0  0  0  0  0
    7.6747   -1.1398   24.5379 O   0  0  0  0  0  0  0  0  0  0  0  0
    8.5967   -1.6825   25.3990 C   0  0  0  0  0  0  0  0  0  0  0  0
    9.9688   -1.7608   24.9219 C   0  0  0  0  0  0  0  0  0  0  0  0
   10.2432   -1.8975   23.5567 C   0  0  0  0  0  0  0  0  0  0  0  0
   11.5621   -1.9716   23.1116 C   0  0  0  0  0  0  0  0  0  0  0  0
   12.5763   -1.9066   24.0520 C   0  0  0  0  0  0  0  0  0  0  0  0
   12.3589   -1.7751   25.3776 N   0  0  0  0  0  0  0  0  0  0  0  0
   11.0637   -1.7054   25.7789 C   0  0  0  0  0  0  0  0  0  0  0  0
    8.1004   -2.0650   26.5633 N   0  0  0  0  0  0  0  0  0  0  0  0
    6.7666   -1.7580   26.4671 C   0  0  0  0  0  0  0  0  0  0  0  0
    5.7144   -1.9252   27.3771 C   0  0  0  0  0  0  0  0  0  0  0  0
    2.8696   -0.6444   28.8121 C   0  0  0  0  0  0  0  0  0  0  0  0
    3.5354    0.5610   28.8013 O   0  0  0  0  0  0  0  0  0  0  0  0
    3.3305    1.2226   27.5519 C   0  0  0  0  0  0  0  0  0  0  0  0
    1.8215   -0.8532   29.7253 C   0  0  0  0  0  0  0  0  0  0  0  0
    1.4365    0.1714   30.5605 O   0  0  0  0  0  0  0  0  0  0  0  0
    2.5800    0.6980   31.2325 C   0  0  0  0  0  0  0  0  0  0  0  0
  1  2  1  0
  2  3  1  0
  3  4  2  0
  4  5  1  0
  5  6  2  0
  6  7  1  0
  7  8  2  0
  8  9  1  0
  9 10  2  0
 10 11  1  0
 11 12  1  0
 12 13  1  0
 13 14  2  0
 14 15  1  0
 15 16  2  0
 16 17  1  0
 17 18  2  0
 12 19  2  0
 19 20  1  0
 20 21  2  0
  6 22  1  0
 22 23  1  0
 23 24  1  0
 22 25  2  0
 25 26  1  0
 26 27  1  0
 25  3  1  0
 21  7  1  0
 20 10  1  0
 18 13  1  0
M  END
