
     RDKit          3D

 25 26  0  0  0  0  0  0  0  0999 V2000
   13.3511    2.4652   23.6928 C   0  0  0  0  0  0  0  0  0  0  0  0
   13.0573    1.0353   23.8185 N   0  0  0  0  0  0  0  0  0  0  0  0
   14.1836    0.2354   23.3062 C   0  0  0  0  0  0  0  0  0  0  0  0
   14.1363   -1.2518   23.7019 C   0  0  0  0  0  0  0  0  0  0  0  0
   14.1052   -1.4717   25.2218 C   0  0  0  0  0  0  0  0  0  0  0  0
   13.9533   -2.9117   25.5251 N   0  0  0  0  0  0  0  0  0  0  0  0
   14.9035   -3.3163   26.5657 C   0  0  0  0  0  0  0  0  0  0  0  0
   12.5769   -3.2597   25.9663 C   0  0  0  0  0  0  0  0  0  0  0  0
   11.4686   -2.9492   24.9333 C   0  0  0  0  0  0  0  0  0  0  0  0
   10.1074   -3.3490   25.3869 N   0  0  0  0  0  0  0  0  0  0  0  0
    9.8713   -4.7737   25.0695 C   0  0  0  0  0  0  0  0  0  0  0  0
    8.6097   -5.3186   25.7615 C   0  0  0  0  0  0  0  0  0  0  0  0
    7.4572   -5.4481   24.7932 C   0  0  0  0  0  0  0  0  0  0  0  0
    6.1423   -5.2162   25.2182 C   0  0  0  0  0  0  0  0  0  0  0  0
    5.0770   -5.3551   24.3275 C   0  0  0  0  0  0  0  0  0  0  0  0
    5.3155   -5.7306   23.0066 C   0  0  0  0  0  0  0  0  0  0  0  0
    6.6192   -5.9690   22.5754 C   0  0  0  0  0  0  0  0  0  0  0  0
    7.6860   -5.8305   23.4645 C   0  0  0  0  0  0  0  0  0  0  0  0
    9.1147   -2.4790   24.7119 C   0  0  0  0  0  0  0  0  0  0  0  0
    8.9230   -1.1751   25.5057 C   0  0  0  0  0  0  0  0  0  0  0  0
    8.4129   -0.0103   24.6394 C   0  0  0  0  0  0  0  0  0  0  0  0
    9.3384    0.3608   23.5538 N   0  0  0  0  0  0  0  0  0  0  0  0
    8.6665    1.2158   22.5735 C   0  0  0  0  0  0  0  0  0  0  0  0
   10.5669    1.0137   24.0573 C   0  0  0  0  0  0  0  0  0  0  0  0
   11.7805    0.7067   23.1467 C   0  0  0  0  0  0  0  0  0  0  0  0
  1  2  1  0
  2  3  1  0
  3  4  1  0
  4  5  1  0
  5  6  1  0
  6  7  1  0
  6  8  1  0
  8  9  1  0
  9 10  1  0
 10 11  1  0
 11 12  1  0
 12 13  1  0
 13 14  2  0
 14 15  1  0
 15 16  2  0
 16 17  1  0
 17 18  2  0
 10 19  1  0
 19 20  1  0
 20 21  1  0
 21 22  1  0
 22 23  1  0
 22 24  1  0
 24 25  1  0
 25  2  1  0
 18 13  1  0
M  END
