
     RDKit          3D

  9  9  0  0  0  0  0  0  0  0999 V2000
   10.4575   -1.4928   22.2262 F   0  0  0  0  0  0  0  0  0  0  0  0
   11.4718   -0.9973   22.9490 C   0  0  0  0  0  0  0  0  0  0  0  0
   12.1764   -1.8601   23.7648 C   0  0  0  0  0  0  0  0  0  0  0  0
   13.2225   -1.3288   24.5050 C   0  0  0  0  0  0  0  0  0  0  0  0
   14.3322   -2.5593   25.7566 I   0  0  0  0  0  0  0  0  0  0  0  0
   13.5304    0.0237   24.4121 C   0  0  0  0  0  0  0  0  0  0  0  0
   12.7583    0.7996   23.5622 C   0  0  0  0  0  0  0  0  0  0  0  0
   13.1818    2.8378   23.3884 I   0  0  0  0  0  0  0  0  0  0  0  0
   11.7348    0.3178   22.8282 N   0  0  0  0  0  0  0  0  0  0  0  0
  1  2  1  0
  2  3  2  0
  3  4  1  0
  4  5  1  0
  4  6  2  0
  6  7  1  0
  7  8  1  0
  7  9  2  0
  9  2  1  0
M  END
