
     RDKit          3D

 24 26  0  0  0  0  0  0  0  0999 V2000
    2.6235    3.1977   18.8889 C   0  0  0  0  0  0  0  0  0  0  0  0
    3.2796    2.3725   19.9943 C   0  0  0  0  0  0  0  0  0  0  0  0
    4.0455    3.2808   20.9651 C   0  0  0  0  0  0  0  0  0  0  0  0
    4.7499    2.4719   22.0584 C   0  0  0  0  0  0  0  0  0  0  0  0
    5.6699    1.3838   21.4761 C   0  0  0  0  0  0  0  0  0  0  0  0
    4.9062    0.4905   20.4876 C   0  0  0  0  0  0  0  0  0  0  0  0
    4.2032    1.3035   19.3955 C   0  0  0  0  0  0  0  0  0  0  0  0
    6.6870    2.0683   20.6935 O   0  0  0  0  0  0  0  0  0  0  0  0
    7.8743    2.1549   21.4952 C   0  0  0  0  0  0  0  0  0  0  0  0
    7.8444    0.9120   22.3449 C   0  0  2  0  0  0  0  0  0  0  0  0
    8.6075   -0.2040   21.6325 C   0  0  0  0  0  0  0  0  0  0  0  0
    9.7823   -0.4870   21.8246 O   0  0  0  0  0  0  0  0  0  0  0  0
    7.8955   -0.9006   20.7211 O   0  0  0  0  0  0  0  0  0  0  0  0
    6.4218    0.6595   22.5013 N   0  0  0  0  0  0  0  0  0  0  0  0
    6.0306   -0.1632   23.5359 C   0  0  0  0  0  0  0  0  0  0  0  0
    4.8543   -0.4348   23.7684 O   0  0  0  0  0  0  0  0  0  0  0  0
    7.0222   -0.7556   24.4385 C   0  0  0  0  0  0  0  0  0  0  0  0
    7.2476   -0.1615   25.6823 C   0  0  0  0  0  0  0  0  0  0  0  0
    8.1378   -0.7633   26.5673 C   0  0  0  0  0  0  0  0  0  0  0  0
    8.4538   -0.0255   28.0885 Cl  0  0  0  0  0  0  0  0  0  0  0  0
    8.7764   -1.9569   26.2323 C   0  0  0  0  0  0  0  0  0  0  0  0
    8.5050   -2.5591   25.0040 C   0  0  0  0  0  0  0  0  0  0  0  0
    9.2744   -4.0417   24.5934 Cl  0  0  0  0  0  0  0  0  0  0  0  0
    7.6172   -1.9735   24.1053 C   0  0  0  0  0  0  0  0  0  0  0  0
  1  2  1  0
  2  3  1  0
  3  4  1  0
  4  5  1  0
  5  6  1  0
  6  7  1  0
  5  8  1  0
  8  9  1  0
  9 10  1  0
 10 11  1  6
 11 12  2  0
 11 13  1  0
 10 14  1  0
 14 15  1  0
 15 16  2  0
 15 17  1  0
 17 18  2  0
 18 19  1  0
 19 20  1  0
 19 21  2  0
 21 22  1  0
 22 23  1  0
 22 24  2  0
  7  2  1  0
 24 17  1  0
 14  5  1  0
M  END
