
     RDKit          3D

 24 26  0  0  0  0  0  0  0  0999 V2000
   13.9540   -0.7827   26.0737 C   0  0  0  0  0  0  0  0  0  0  0  0
   13.5937   -1.2653   24.7410 N   0  0  0  0  0  0  0  0  0  0  0  0
   13.9762   -2.6489   24.4527 C   0  0  0  0  0  0  0  0  0  0  0  0
   12.4489   -0.7617   24.1105 C   0  0  0  0  0  0  0  0  0  0  0  0
   11.6081    0.1692   24.7542 C   0  0  0  0  0  0  0  0  0  0  0  0
   10.4523    0.6771   24.1483 C   0  0  0  0  0  0  0  0  0  0  0  0
   10.1165    0.2646   22.8653 C   0  0  0  0  0  0  0  0  0  0  0  0
    8.9094    0.8027   22.2138 C   0  0  0  0  0  0  0  0  0  0  0  0
    9.0478    1.7642   21.4655 O   0  0  0  0  0  0  0  0  0  0  0  0
    7.7025    0.2030   22.5084 N   0  0  0  0  0  0  0  0  0  0  0  0
    7.4891   -0.9214   23.4073 C   0  0  2  0  0  0  0  0  0  0  0  0
    7.7648   -2.3015   22.8130 C   0  0  0  0  0  0  0  0  0  0  0  0
    8.7681   -2.9688   23.0246 O   0  0  0  0  0  0  0  0  0  0  0  0
    6.8082   -2.7784   21.9932 O   0  0  0  0  0  0  0  0  0  0  0  0
    6.0119   -0.8150   23.7049 C   0  0  0  0  0  0  0  0  0  0  0  0
    5.4439   -0.2470   22.5143 O   0  0  0  0  0  0  0  0  0  0  0  0
    6.4394    0.6404   21.9354 C   0  0  0  0  0  0  0  0  0  0  0  0
    6.0718    2.0798   22.3489 C   0  0  0  0  0  0  0  0  0  0  0  0
    4.7276    2.5205   21.7671 C   0  0  0  0  0  0  0  0  0  0  0  0
    4.6917    2.3523   20.2515 C   0  0  0  0  0  0  0  0  0  0  0  0
    5.0267    0.9236   19.8338 C   0  0  0  0  0  0  0  0  0  0  0  0
    6.3679    0.4632   20.4091 C   0  0  0  0  0  0  0  0  0  0  0  0
   10.8920   -0.6846   22.2079 C   0  0  0  0  0  0  0  0  0  0  0  0
   12.0415   -1.1884   22.8309 C   0  0  0  0  0  0  0  0  0  0  0  0
  1  2  1  0
  2  3  1  0
  2  4  1  0
  4  5  2  0
  5  6  1  0
  6  7  2  0
  7  8  1  0
  8  9  2  0
  8 10  1  0
 10 11  1  0
 11 12  1  6
 12 13  2  0
 12 14  1  0
 11 15  1  0
 15 16  1  0
 16 17  1  0
 17 18  1  0
 18 19  1  0
 19 20  1  0
 20 21  1  0
 21 22  1  0
  7 23  1  0
 23 24  2  0
 24  4  1  0
 17 10  1  0
 22 17  1  0
M  END
