
     RDKit          3D

 23 25  0  0  0  0  0  0  0  0999 V2000
    7.6428    5.1031   24.1362 C   0  0  0  0  0  0  0  0  0  0  0  0
    8.2743    3.8184   24.4470 N   0  0  0  0  0  0  0  0  0  0  0  0
    8.0282    2.8574   23.3618 C   0  0  0  0  0  0  0  0  0  0  0  0
    8.6043    1.4870   23.7228 C   0  0  0  0  0  0  0  0  0  0  0  0
   10.1006    1.5815   24.0369 C   0  0  0  0  0  0  0  0  0  0  0  0
   10.3772    2.6841   25.0635 C   0  0  0  0  0  0  0  0  0  0  0  0
    9.7180    4.0026   24.6568 C   0  0  0  0  0  0  0  0  0  0  0  0
   10.7607    2.0014   22.8112 O   0  0  0  0  0  0  0  0  0  0  0  0
   11.3847    0.8518   22.2243 C   0  0  0  0  0  0  0  0  0  0  0  0
   11.7841   -0.0040   23.4004 C   0  0  1  0  0  0  0  0  0  0  0  0
   13.2188    0.3120   23.8533 C   0  0  0  0  0  0  0  0  0  0  0  0
   13.9066   -0.4331   24.5397 O   0  0  0  0  0  0  0  0  0  0  0  0
   13.6433    1.5623   23.5473 O   0  0  0  0  0  0  0  0  0  0  0  0
   10.7453    0.3044   24.3803 N   0  0  0  0  0  0  0  0  0  0  0  0
   10.5328   -0.5652   25.4285 C   0  0  0  0  0  0  0  0  0  0  0  0
    9.6359   -0.3494   26.2462 O   0  0  0  0  0  0  0  0  0  0  0  0
   11.3169   -1.7935   25.5935 C   0  0  0  0  0  0  0  0  0  0  0  0
   12.5344   -1.7159   26.2801 C   0  0  0  0  0  0  0  0  0  0  0  0
   13.3351   -2.8513   26.4035 C   0  0  0  0  0  0  0  0  0  0  0  0
   12.9372   -4.0523   25.8160 C   0  0  0  0  0  0  0  0  0  0  0  0
   11.7458   -4.1188   25.0898 C   0  0  0  0  0  0  0  0  0  0  0  0
   10.9386   -2.9850   24.9637 C   0  0  0  0  0  0  0  0  0  0  0  0
    9.3552   -3.1304   23.9261 Br  0  0  0  0  0  0  0  0  0  0  0  0
  1  2  1  0
  2  3  1  0
  3  4  1  0
  4  5  1  0
  5  6  1  0
  6  7  1  0
  5  8  1  0
  8  9  1  0
  9 10  1  0
 10 11  1  1
 11 12  2  0
 11 13  1  0
 10 14  1  0
 14 15  1  0
 15 16  2  0
 15 17  1  0
 17 18  2  0
 18 19  1  0
 19 20  2  0
 20 21  1  0
 21 22  2  0
 22 23  1  0
  7  2  1  0
 22 17  1  0
 14  5  1  0
M  END
