
     RDKit          3D

 23 25  0  0  0  0  0  0  0  0999 V2000
    3.6588    2.3235   26.1308 C   0  0  0  0  0  0  0  0  0  0  0  0
    4.9575    2.6284   26.8700 C   0  0  0  0  0  0  0  0  0  0  0  0
    6.1584    2.2228   26.1169 N   0  0  0  0  0  0  0  0  0  0  0  0
    5.8878    1.0751   25.2350 C   0  0  0  0  0  0  0  0  0  0  0  0
    7.1282    0.7177   24.4115 C   0  0  0  0  0  0  0  0  0  0  0  0
    8.3290    0.4279   25.3156 C   0  0  0  0  0  0  0  0  0  0  0  0
    8.5383    1.5615   26.3210 C   0  0  0  0  0  0  0  0  0  0  0  0
    7.2417    1.8924   27.0608 C   0  0  0  0  0  0  0  0  0  0  0  0
    7.9885   -0.7486   26.0998 O   0  0  0  0  0  0  0  0  0  0  0  0
    8.6511   -1.8787   25.5183 C   0  0  0  0  0  0  0  0  0  0  0  0
    9.9365   -1.3182   24.9622 C   0  0  2  0  0  0  0  0  0  0  0  0
   11.0771   -1.4304   25.9875 C   0  0  0  0  0  0  0  0  0  0  0  0
   11.5000   -0.4947   26.6548 O   0  0  0  0  0  0  0  0  0  0  0  0
   11.5094   -2.6947   26.2138 O   0  0  0  0  0  0  0  0  0  0  0  0
    9.5579    0.0468   24.6033 N   0  0  0  0  0  0  0  0  0  0  0  0
   10.3505    0.7564   23.7279 C   0  0  0  0  0  0  0  0  0  0  0  0
   10.0331    1.8961   23.3816 O   0  0  0  0  0  0  0  0  0  0  0  0
   11.5673    0.1840   23.1419 C   0  0  0  0  0  0  0  0  0  0  0  0
   12.7953    0.8119   23.3699 C   0  0  0  0  0  0  0  0  0  0  0  0
   13.9454    0.3114   22.7600 C   0  0  0  0  0  0  0  0  0  0  0  0
   13.8592   -0.7911   21.9075 C   0  0  0  0  0  0  0  0  0  0  0  0
   12.6231   -1.3867   21.6487 C   0  0  0  0  0  0  0  0  0  0  0  0
   11.4691   -0.8899   22.2542 C   0  0  0  0  0  0  0  0  0  0  0  0
  1  2  1  0
  2  3  1  0
  3  4  1  0
  4  5  1  0
  5  6  1  0
  6  7  1  0
  7  8  1  0
  6  9  1  0
  9 10  1  0
 10 11  1  0
 11 12  1  1
 12 13  2  0
 12 14  1  0
 11 15  1  0
 15 16  1  0
 16 17  2  0
 16 18  1  0
 18 19  2  0
 19 20  1  0
 20 21  2  0
 21 22  1  0
 22 23  2  0
  8  3  1  0
 23 18  1  0
 15  6  1  0
M  END
