
     RDKit          3D

 25 27  0  0  0  0  0  0  0  0999 V2000
   14.5764   -2.8240   24.7811 C   0  0  0  0  0  0  0  0  0  0  0  0
   13.3009   -2.6802   25.6400 C   0  0  0  0  0  0  0  0  0  0  0  0
   13.1378   -3.9642   26.4735 C   0  0  0  0  0  0  0  0  0  0  0  0
   13.5389   -1.5030   26.6116 C   0  0  0  0  0  0  0  0  0  0  0  0
   12.0539   -2.3881   24.7232 C   0  0  0  0  0  0  0  0  0  0  0  0
   12.2989   -1.2735   23.6809 C   0  0  0  0  0  0  0  0  0  0  0  0
   11.0918   -1.0657   22.7580 C   0  0  0  0  0  0  0  0  0  0  0  0
    9.7999   -0.7924   23.5368 C   0  0  0  0  0  0  0  0  0  0  0  0
    9.5563   -1.8843   24.5873 C   0  0  0  0  0  0  0  0  0  0  0  0
   10.7630   -2.0770   25.5143 C   0  0  0  0  0  0  0  0  0  0  0  0
   10.0207    0.4421   24.2631 O   0  0  0  0  0  0  0  0  0  0  0  0
    8.8044    1.1996   24.2315 C   0  0  0  0  0  0  0  0  0  0  0  0
    8.1814    0.8564   22.9000 C   0  0  1  0  0  0  0  0  0  0  0  0
    8.5913    1.8737   21.8214 C   0  0  0  0  0  0  0  0  0  0  0  0
    9.7495    2.1402   21.5254 O   0  0  0  0  0  0  0  0  0  0  0  0
    7.5616    2.5784   21.2930 O   0  0  0  0  0  0  0  0  0  0  0  0
    8.6471   -0.5123   22.6729 N   0  0  0  0  0  0  0  0  0  0  0  0
    8.0055   -1.2987   21.7416 C   0  0  0  0  0  0  0  0  0  0  0  0
    8.3520   -2.4673   21.5614 O   0  0  0  0  0  0  0  0  0  0  0  0
    6.8675   -0.8098   20.9667 C   0  0  0  0  0  0  0  0  0  0  0  0
    6.8307   -0.9546   19.5809 C   0  0  0  0  0  0  0  0  0  0  0  0
    5.6959   -0.5343   18.8909 C   0  0  0  0  0  0  0  0  0  0  0  0
    4.6368   -0.0119   19.6198 C   0  0  0  0  0  0  0  0  0  0  0  0
    4.6347    0.0987   20.9682 N   0  0  0  0  0  0  0  0  0  0  0  0
    5.7437   -0.3263   21.6181 C   0  0  0  0  0  0  0  0  0  0  0  0
  1  2  1  0
  2  3  1  0
  2  4  1  0
  2  5  1  0
  5  6  1  0
  6  7  1  0
  7  8  1  0
  8  9  1  0
  9 10  1  0
  8 11  1  0
 11 12  1  0
 12 13  1  0
 13 14  1  6
 14 15  2  0
 14 16  1  0
 13 17  1  0
 17 18  1  0
 18 19  2  0
 18 20  1  0
 20 21  2  0
 21 22  1  0
 22 23  2  0
 23 24  1  0
 24 25  2  0
 10  5  1  0
 25 20  1  0
 17  8  1  0
M  END
