
     RDKit          3D

 24 27  0  0  0  0  0  0  0  0999 V2000
   10.9379   -4.2541   26.8782 C   0  0  0  0  0  0  0  0  0  0  0  0
   11.3423   -3.1809   25.9390 C   0  0  0  0  0  0  0  0  0  0  0  0
   12.6729   -2.8534   25.8274 N   0  0  0  0  0  0  0  0  0  0  0  0
   12.7335   -1.8244   25.0102 C   0  0  0  0  0  0  0  0  0  0  0  0
   13.8340   -1.1291   24.5952 N   0  0  0  0  0  0  0  0  0  0  0  0
   13.6113   -0.1274   23.8020 C   0  0  0  0  0  0  0  0  0  0  0  0
   12.2865    0.3285   23.2990 C   0  0  0  0  0  0  0  0  0  0  0  0
   11.2421   -0.3950   23.7229 C   0  0  0  0  0  0  0  0  0  0  0  0
   11.4557   -1.4733   24.5772 N   0  0  0  0  0  0  0  0  0  0  0  0
   10.5656   -2.3740   25.1223 C   0  0  0  0  0  0  0  0  0  0  0  0
    9.1459   -2.3475   24.9017 C   0  0  0  0  0  0  0  0  0  0  0  0
    8.5123   -1.2933   24.9045 O   0  0  0  0  0  0  0  0  0  0  0  0
    8.5186   -3.5498   24.6297 N   0  0  0  0  0  0  0  0  0  0  0  0
    9.1289   -4.8668   24.5369 C   0  0  0  0  0  0  0  0  0  0  0  0
    8.1381   -5.6853   23.7181 C   0  0  0  0  0  0  0  0  0  0  0  0
    6.7671   -5.0711   24.0589 C   0  0  1  0  0  0  0  0  0  0  0  0
    7.1131   -3.5857   24.2565 C   0  0  0  0  0  0  0  0  0  0  0  0
    5.7681   -5.2952   22.9194 C   0  0  0  0  0  0  0  0  0  0  0  0
    4.4112   -4.7046   23.2727 C   0  0  0  0  0  0  0  0  0  0  0  0
    3.8960   -5.3428   24.5502 C   0  0  0  0  0  0  0  0  0  0  0  0
    4.8646   -5.3324   25.6390 N   0  0  0  0  0  0  0  0  0  0  0  0
    4.3522   -5.7335   26.9392 C   0  0  0  0  0  0  0  0  0  0  0  0
    6.2061   -5.6256   25.3772 C   0  0  0  0  0  0  0  0  0  0  0  0
    6.9218   -6.2082   26.1916 O   0  0  0  0  0  0  0  0  0  0  0  0
  1  2  1  0
  2  3  1  0
  3  4  2  0
  4  5  1  0
  5  6  2  0
  6  7  1  0
  7  8  2  0
  8  9  1  0
  9 10  1  0
 10 11  1  0
 11 12  2  0
 11 13  1  0
 13 14  1  0
 14 15  1  0
 16 15  1  6
 16 17  1  0
 16 18  1  0
 18 19  1  0
 19 20  1  0
 20 21  1  0
 21 22  1  0
 21 23  1  0
 23 24  2  0
 10  2  2  0
 17 13  1  0
  9  4  1  0
 23 16  1  0
M  END
