
     RDKit          3D

 17 18  0  0  0  0  0  0  0  0999 V2000
    6.3209   -1.3791   21.1583 C   0  0  0  0  0  0  0  0  0  0  0  0
    6.8106   -2.2563   22.1745 O   0  0  0  0  0  0  0  0  0  0  0  0
    8.1561   -2.4285   22.1587 C   0  0  0  0  0  0  0  0  0  0  0  0
    8.9236   -1.9340   21.3448 O   0  0  0  0  0  0  0  0  0  0  0  0
    8.5974   -3.3135   23.2784 C   0  0  0  0  0  0  0  0  0  0  0  0
    7.7428   -4.3111   23.7843 C   0  0  0  0  0  0  0  0  0  0  0  0
    8.1542   -5.1382   24.8302 C   0  0  0  0  0  0  0  0  0  0  0  0
    9.4217   -4.9780   25.3812 C   0  0  0  0  0  0  0  0  0  0  0  0
   10.2796   -3.9882   24.8847 C   0  0  0  0  0  0  0  0  0  0  0  0
   11.6313   -3.8209   25.4755 C   0  0  0  0  0  0  0  0  0  0  0  0
   11.9736   -4.5596   26.3957 O   0  0  0  0  0  0  0  0  0  0  0  0
   12.5275   -2.7458   24.9164 C   0  0  0  0  0  0  0  0  0  0  0  0
   14.3970   -2.5648   25.7835 I   0  0  0  0  0  0  0  0  0  0  0  0
   12.0519   -1.9869   23.9019 C   0  0  0  0  0  0  0  0  0  0  0  0
   12.8169   -0.8694   23.2276 C   0  0  0  0  0  0  0  0  0  0  0  0
   10.7861   -2.1739   23.3784 N   0  0  0  0  0  0  0  0  0  0  0  0
    9.8848   -3.1471   23.8342 C   0  0  0  0  0  0  0  0  0  0  0  0
  1  2  1  0
  2  3  1  0
  3  4  2  0
  3  5  1  0
  5  6  2  0
  6  7  1  0
  7  8  2  0
  8  9  1  0
  9 10  1  0
 10 11  2  0
 10 12  1  0
 12 13  1  0
 12 14  2  0
 14 15  1  0
 14 16  1  0
 16 17  1  0
 17  5  1  0
 17  9  2  0
M  END
