
     RDKit          3D

 23 25  0  0  0  0  0  0  0  0999 V2000
    5.8596   -3.1882   20.5028 C   0  0  0  0  0  0  0  0  0  0  0  0
    5.4997   -2.1715   19.4283 C   0  0  0  0  0  0  0  0  0  0  0  0
    5.2479   -0.7739   19.9975 C   0  0  0  0  0  0  0  0  0  0  0  0
    6.5185   -0.1106   20.2759 N   0  0  0  0  0  0  0  0  0  0  0  0
    7.0352   -0.3827   21.5436 C   0  0  0  0  0  0  0  0  0  0  0  0
    6.2264   -0.4921   22.6667 C   0  0  0  0  0  0  0  0  0  0  0  0
    6.8095   -0.7781   23.9001 C   0  0  0  0  0  0  0  0  0  0  0  0
    8.1921   -0.9521   23.9933 C   0  0  0  0  0  0  0  0  0  0  0  0
    8.8344   -1.2679   25.3232 C   0  0  1  0  0  0  0  0  0  0  0  0
    8.1355   -2.4297   26.0467 C   0  0  0  0  0  0  0  0  0  0  0  0
    8.9782   -3.6489   25.6863 C   0  0  0  0  0  0  0  0  0  0  0  0
   10.3893   -3.0868   25.6406 C   0  0  0  0  0  0  0  0  0  0  0  0
   10.2277   -1.7072   25.2165 N   0  0  0  0  0  0  0  0  0  0  0  0
   11.3400   -0.9231   24.9727 C   0  0  0  0  0  0  0  0  0  0  0  0
   11.2814    0.2466   24.6072 O   0  0  0  0  0  0  0  0  0  0  0  0
   12.6687   -1.5335   25.1575 C   0  0  0  0  0  0  0  0  0  0  0  0
   13.4676   -1.7946   24.0411 C   0  0  0  0  0  0  0  0  0  0  0  0
   14.7232   -2.3749   24.2191 C   0  0  0  0  0  0  0  0  0  0  0  0
   15.1746   -2.6809   25.5053 C   0  0  0  0  0  0  0  0  0  0  0  0
   14.3776   -2.4012   26.6178 C   0  0  0  0  0  0  0  0  0  0  0  0
   13.1227   -1.8178   26.4473 C   0  0  0  0  0  0  0  0  0  0  0  0
    8.9119   -0.8396   22.8092 C   0  0  0  0  0  0  0  0  0  0  0  0
    8.3658   -0.5636   21.6006 N   0  0  0  0  0  0  0  0  0  0  0  0
  1  2  1  0
  2  3  1  0
  3  4  1  0
  4  5  1  0
  5  6  2  0
  6  7  1  0
  7  8  2  0
  9  8  1  6
  9 10  1  0
 10 11  1  0
 11 12  1  0
 12 13  1  0
 13 14  1  0
 14 15  2  0
 14 16  1  0
 16 17  2  0
 17 18  1  0
 18 19  2  0
 19 20  1  0
 20 21  2  0
  8 22  1  0
 22 23  2  0
 23  5  1  0
 13  9  1  0
 21 16  1  0
M  END
