
     RDKit          3D

 27 29  0  0  0  0  0  0  0  0999 V2000
    3.3756    1.1018   27.5800 C   0  0  0  0  0  0  0  0  0  0  0  0
    4.4347    0.9392   26.6468 O   0  0  0  0  0  0  0  0  0  0  0  0
    4.3663    1.6600   25.4824 C   0  0  0  0  0  0  0  0  0  0  0  0
    3.2310    1.7605   24.6766 C   0  0  0  0  0  0  0  0  0  0  0  0
    3.2703    2.5264   23.5027 C   0  0  0  0  0  0  0  0  0  0  0  0
    2.0863    2.6462   22.6063 C   0  0  0  0  0  0  0  0  0  0  0  0
    2.1512    2.2787   21.4387 O   0  0  0  0  0  0  0  0  0  0  0  0
    0.9238    3.1215   23.1783 N   0  0  0  0  0  0  0  0  0  0  0  0
   -0.2854    3.2737   22.3842 C   0  0  0  0  0  0  0  0  0  0  0  0
   -1.5556    2.8237   23.1120 C   0  0  0  0  0  0  0  0  0  0  0  0
   -1.8269    3.6380   24.2897 N   0  0  0  0  0  0  0  0  0  0  0  0
   -2.1370    3.1223   25.5229 C   0  0  0  0  0  0  0  0  0  0  0  0
   -2.4008    4.1748   26.3682 C   0  0  0  0  0  0  0  0  0  0  0  0
   -2.2349    5.3769   25.6292 C   0  0  0  0  0  0  0  0  0  0  0  0
   -2.3715    6.7421   25.9512 C   0  0  0  0  0  0  0  0  0  0  0  0
   -2.1274    7.7109   24.9711 C   0  0  0  0  0  0  0  0  0  0  0  0
   -1.7418    7.3291   23.6905 C   0  0  0  0  0  0  0  0  0  0  0  0
   -1.4169    8.6569   22.3814 Br  0  0  0  0  0  0  0  0  0  0  0  0
   -1.5904    5.9837   23.3447 C   0  0  0  0  0  0  0  0  0  0  0  0
   -1.8544    5.0185   24.3318 C   0  0  0  0  0  0  0  0  0  0  0  0
    4.4374    3.2176   23.1439 C   0  0  0  0  0  0  0  0  0  0  0  0
    5.5792    3.1326   23.9403 C   0  0  0  0  0  0  0  0  0  0  0  0
    6.7694    3.7577   23.6736 O   0  0  0  0  0  0  0  0  0  0  0  0
    6.8693    4.4866   22.4576 C   0  0  0  0  0  0  0  0  0  0  0  0
    5.5280    2.3629   25.1154 C   0  0  0  0  0  0  0  0  0  0  0  0
    6.6613    2.2318   25.8886 O   0  0  0  0  0  0  0  0  0  0  0  0
    7.1963    0.9173   25.7447 C   0  0  0  0  0  0  0  0  0  0  0  0
  1  2  1  0
  2  3  1  0
  3  4  2  0
  4  5  1  0
  5  6  1  0
  6  7  2  0
  6  8  1  0
  8  9  1  0
  9 10  1  0
 10 11  1  0
 11 12  1  0
 12 13  2  0
 13 14  1  0
 14 15  2  0
 15 16  1  0
 16 17  2  0
 17 18  1  0
 17 19  1  0
 19 20  2  0
  5 21  2  0
 21 22  1  0
 22 23  1  0
 23 24  1  0
 22 25  2  0
 25 26  1  0
 26 27  1  0
 25  3  1  0
 20 11  1  0
 20 14  1  0
M  END
