
     RDKit          3D

 24 25  0  0  0  0  0  0  0  0999 V2000
    1.7941   12.7228   21.7921 C   0  0  0  0  0  0  0  0  0  0  0  0
    1.9149   11.3956   21.2984 O   0  0  0  0  0  0  0  0  0  0  0  0
    1.7622   11.2050   19.9496 C   0  0  0  0  0  0  0  0  0  0  0  0
    2.5894   11.7506   18.9680 C   0  0  0  0  0  0  0  0  0  0  0  0
    2.3382   11.4999   17.6102 C   0  0  0  0  0  0  0  0  0  0  0  0
    3.2553   12.1107   16.6113 C   0  0  0  0  0  0  0  0  0  0  0  0
    3.8249   11.4735   15.7392 O   0  0  0  0  0  0  0  0  0  0  0  0
    3.3891   13.4419   16.8341 O   0  0  0  0  0  0  0  0  0  0  0  0
    4.1080   14.1370   15.8116 C   0  0  0  0  0  0  0  0  0  0  0  0
    3.4223   14.0057   14.4546 C   0  0  0  0  0  0  0  0  0  0  0  0
    4.0570   14.0025   13.3992 O   0  0  0  0  0  0  0  0  0  0  0  0
    1.9366   13.8536   14.4167 C   0  0  0  0  0  0  0  0  0  0  0  0
    1.1530   13.8285   15.5776 C   0  0  0  0  0  0  0  0  0  0  0  0
   -0.2340   13.6793   15.4842 C   0  0  0  0  0  0  0  0  0  0  0  0
   -0.8442   13.5525   14.2372 C   0  0  0  0  0  0  0  0  0  0  0  0
   -0.0713   13.5726   13.0785 C   0  0  0  0  0  0  0  0  0  0  0  0
    1.3141   13.7212   13.1672 C   0  0  0  0  0  0  0  0  0  0  0  0
    1.2596   10.6878   17.2272 C   0  0  0  0  0  0  0  0  0  0  0  0
    0.4223   10.1316   18.1955 C   0  0  0  0  0  0  0  0  0  0  0  0
   -0.6589    9.3311   17.9309 O   0  0  0  0  0  0  0  0  0  0  0  0
   -1.3467    9.5374   16.7046 C   0  0  0  0  0  0  0  0  0  0  0  0
    0.6899   10.3862   19.5529 C   0  0  0  0  0  0  0  0  0  0  0  0
   -0.1603    9.8794   20.5121 O   0  0  0  0  0  0  0  0  0  0  0  0
    0.4012    8.6970   21.0796 C   0  0  0  0  0  0  0  0  0  0  0  0
  1  2  1  0
  2  3  1  0
  3  4  2  0
  4  5  1  0
  5  6  1  0
  6  7  2  0
  6  8  1  0
  8  9  1  0
  9 10  1  0
 10 11  2  0
 10 12  1  0
 12 13  2  0
 13 14  1  0
 14 15  2  0
 15 16  1  0
 16 17  2  0
  5 18  2  0
 18 19  1  0
 19 20  1  0
 20 21  1  0
 19 22  2  0
 22 23  1  0
 23 24  1  0
 22  3  1  0
 17 12  1  0
M  END
