
     RDKit          3D

 19 21  0  0  0  0  0  0  0  0999 V2000
    6.5480   -1.6598   25.8496 C   0  0  0  0  0  0  0  0  0  0  0  0
    5.4725   -1.3867   26.8968 C   0  0  2  0  0  0  0  0  0  0  0  0
    4.0854   -1.7440   26.3540 C   0  0  0  0  0  0  0  0  0  0  0  0
    3.1464   -0.7898   27.0927 C   0  0  2  0  0  0  0  0  0  0  0  0
    1.8115   -0.5931   26.3677 C   0  0  0  0  0  0  0  0  0  0  0  0
    1.2829    0.8223   26.5650 C   0  0  0  0  0  0  0  0  0  0  0  0
    2.2494    1.8733   26.0107 C   0  0  0  0  0  0  0  0  0  0  0  0
    3.7212    1.4517   26.0680 C   0  0  0  0  0  0  0  0  0  0  0  0
    3.9832    0.4940   27.2316 C   0  0  2  0  0  0  0  0  0  0  0  0
    5.3699    0.0216   27.2857 N   0  0  0  0  0  0  0  0  0  0  0  0
    6.4163    0.6317   27.9644 C   0  0  0  0  0  0  0  0  0  0  0  0
    7.4728    0.0791   28.2553 O   0  0  0  0  0  0  0  0  0  0  0  0
    6.2834    2.0446   28.3405 C   0  0  0  0  0  0  0  0  0  0  0  0
    5.1399    2.4242   29.0462 C   0  0  0  0  0  0  0  0  0  0  0  0
    4.9989    3.7594   29.3721 C   0  0  0  0  0  0  0  0  0  0  0  0
    5.9005    4.7075   29.0360 N   0  0  0  0  0  0  0  0  0  0  0  0
    6.9815    4.3054   28.3208 C   0  0  0  0  0  0  0  0  0  0  0  0
    7.2191    2.9942   27.9426 C   0  0  0  0  0  0  0  0  0  0  0  0
    8.6296    2.6138   27.0341 Cl  0  0  0  0  0  0  0  0  0  0  0  0
  2  1  1  6
  2  3  1  0
  4  3  1  6
  4  5  1  0
  5  6  1  0
  6  7  1  0
  7  8  1  0
  9  8  1  6
  9 10  1  0
 10 11  1  0
 11 12  2  0
 11 13  1  0
 13 14  2  0
 14 15  1  0
 15 16  2  0
 16 17  1  0
 17 18  2  0
 18 19  1  0
 10  2  1  0
 18 13  1  0
  9  4  1  0
M  END
