
     RDKit          3D

 27 30  0  0  0  0  0  0  0  0999 V2000
   12.2542    0.8042   25.2160 C   0  0  0  0  0  0  0  0  0  0  0  0
   11.8745   -0.2375   26.1045 O   0  0  0  0  0  0  0  0  0  0  0  0
   10.5398   -0.5373   26.1959 C   0  0  0  0  0  0  0  0  0  0  0  0
    9.5894    0.2475   26.8539 C   0  0  0  0  0  0  0  0  0  0  0  0
    8.2394   -0.1417   26.8971 C   0  0  0  0  0  0  0  0  0  0  0  0
    7.2290    0.6638   27.5816 C   0  0  0  0  0  0  0  0  0  0  0  0
    6.2932    0.2745   28.4298 N   0  0  0  0  0  0  0  0  0  0  0  0
    5.6389    1.4355   28.7515 C   0  0  0  0  0  0  0  0  0  0  0  0
    4.5517    1.6620   29.6080 C   0  0  0  0  0  0  0  0  0  0  0  0
    4.0750    2.9795   29.7535 C   0  0  0  0  0  0  0  0  0  0  0  0
    2.9727    3.2416   30.6160 N   0  0  0  0  0  0  0  0  0  0  0  0
    2.2879    2.3571   31.4134 C   0  0  0  0  0  0  0  0  0  0  0  0
    1.3279    2.9704   32.0673 N   0  0  0  0  0  0  0  0  0  0  0  0
    1.3626    4.2905   31.7080 N   0  0  0  0  0  0  0  0  0  0  0  0
    2.3426    4.4406   30.8463 C   0  0  0  0  0  0  0  0  0  0  0  0
    4.6903    4.0340   29.0454 C   0  0  0  0  0  0  0  0  0  0  0  0
    5.7859    3.8254   28.1785 C   0  0  0  0  0  0  0  0  0  0  0  0
    6.4160    4.9645   27.4419 C   0  0  0  0  0  0  0  0  0  0  0  0
    6.2079    2.5018   28.0795 C   0  0  0  0  0  0  0  0  0  0  0  0
    7.2338    2.0120   27.3236 O   0  0  0  0  0  0  0  0  0  0  0  0
    7.8497   -1.3359   26.2656 C   0  0  0  0  0  0  0  0  0  0  0  0
    8.7824   -2.1360   25.6024 C   0  0  0  0  0  0  0  0  0  0  0  0
    8.4906   -3.3116   24.9607 O   0  0  0  0  0  0  0  0  0  0  0  0
    7.1746   -3.8281   25.1059 C   0  0  0  0  0  0  0  0  0  0  0  0
   10.1287   -1.7365   25.5909 C   0  0  0  0  0  0  0  0  0  0  0  0
   11.0520   -2.4944   24.9037 O   0  0  0  0  0  0  0  0  0  0  0  0
   12.1708   -2.7724   25.7439 C   0  0  0  0  0  0  0  0  0  0  0  0
  1  2  1  0
  2  3  1  0
  3  4  2  0
  4  5  1  0
  5  6  1  0
  6  7  2  0
  7  8  1  0
  8  9  2  0
  9 10  1  0
 10 11  1  0
 11 12  1  0
 12 13  2  0
 13 14  1  0
 14 15  2  0
 10 16  2  0
 16 17  1  0
 17 18  1  0
 17 19  2  0
 19 20  1  0
  5 21  2  0
 21 22  1  0
 22 23  1  0
 23 24  1  0
 22 25  2  0
 25 26  1  0
 26 27  1  0
 25  3  1  0
 20  6  1  0
 19  8  1  0
 15 11  1  0
M  END
