
     RDKit          3D

 25 28  0  0  0  0  0  0  0  0999 V2000
    6.6441   -5.5531   28.6979 O   0  0  0  0  0  0  0  0  0  0  0  0
    7.2712   -4.7771   27.9835 C   0  0  0  0  0  0  0  0  0  0  0  0
    8.7425   -4.8960   27.9193 C   0  0  0  0  0  0  0  0  0  0  0  0
    9.4248   -5.0301   26.7084 C   0  0  0  0  0  0  0  0  0  0  0  0
   10.8151   -5.1138   26.7198 C   0  0  0  0  0  0  0  0  0  0  0  0
   11.4690   -5.0527   27.9419 C   0  0  0  0  0  0  0  0  0  0  0  0
   10.8359   -4.9077   29.1276 N   0  0  0  0  0  0  0  0  0  0  0  0
    9.4837   -4.8142   29.0891 C   0  0  0  0  0  0  0  0  0  0  0  0
    6.6608   -3.7401   27.2510 N   0  0  0  0  0  0  0  0  0  0  0  0
    7.5928   -2.8760   26.4882 C   0  0  0  0  0  0  0  0  0  0  0  0
    6.9126   -1.6662   25.8293 C   0  0  0  0  0  0  0  0  0  0  0  0
    5.7302   -2.0851   25.0571 N   0  0  0  0  0  0  0  0  0  0  0  0
    6.0439   -2.6052   23.7923 C   0  0  0  0  0  0  0  0  0  0  0  0
    5.4537   -2.0759   22.7077 N   0  0  0  0  0  0  0  0  0  0  0  0
    5.7806   -2.5769   21.5004 C   0  0  0  0  0  0  0  0  0  0  0  0
    6.6745   -3.5986   21.3229 C   0  0  0  0  0  0  0  0  0  0  0  0
    7.2253   -4.0872   22.4773 C   0  0  0  0  0  0  0  0  0  0  0  0
    6.9253   -3.6151   23.7031 N   0  0  0  0  0  0  0  0  0  0  0  0
    4.7495   -2.8932   25.8116 C   0  0  2  0  0  0  0  0  0  0  0  0
    4.0551   -2.0717   26.8956 C   0  0  0  0  0  0  0  0  0  0  0  0
    3.4012   -3.2833   28.0144 S   0  0  0  0  0  0  0  0  0  0  0  0
    1.9985   -3.4810   27.7112 O   0  0  0  0  0  0  0  0  0  0  0  0
    3.8587   -2.9593   29.3510 O   0  0  0  0  0  0  0  0  0  0  0  0
    4.3137   -4.6855   27.4112 C   0  0  0  0  0  0  0  0  0  0  0  0
    5.4201   -4.1097   26.5179 C   0  0  2  0  0  0  0  0  0  0  0  0
  1  2  2  0
  2  3  1  0
  3  4  2  0
  4  5  1  0
  5  6  2  0
  6  7  1  0
  7  8  2  0
  2  9  1  0
  9 10  1  0
 10 11  1  0
 11 12  1  0
 12 13  1  0
 13 14  2  0
 14 15  1  0
 15 16  2  0
 16 17  1  0
 17 18  2  0
 12 19  1  0
 19 20  1  1
 20 21  1  0
 21 22  2  0
 21 23  2  0
 21 24  1  0
 25 24  1  1
  8  3  1  0
 25  9  1  0
 18 13  1  0
 25 19  1  0
M  END
