
     RDKit          3D

 25 28  0  0  0  0  0  0  0  0999 V2000
    8.8851   -0.9200   27.3047 C   0  0  0  0  0  0  0  0  0  0  0  0
    7.1042   -0.7912   27.6159 S   0  0  0  0  0  0  0  0  0  0  0  0
    6.5667   -2.2456   26.7255 C   0  0  0  0  0  0  0  0  0  0  0  0
    7.5443   -3.0221   26.0881 C   0  0  0  0  0  0  0  0  0  0  0  0
    7.1927   -4.1798   25.3863 C   0  0  0  0  0  0  0  0  0  0  0  0
    5.8595   -4.5800   25.3145 C   0  0  0  0  0  0  0  0  0  0  0  0
    4.8753   -3.8255   25.9496 C   0  0  0  0  0  0  0  0  0  0  0  0
    5.2317   -2.6699   26.6595 C   0  0  0  0  0  0  0  0  0  0  0  0
    4.1403   -1.9186   27.3058 C   0  0  0  0  0  0  0  0  0  0  0  0
    3.8524   -0.8107   26.8622 O   0  0  0  0  0  0  0  0  0  0  0  0
    3.4832   -2.5298   28.3519 N   0  0  0  0  0  0  0  0  0  0  0  0
    3.7646   -3.8567   28.8854 C   0  0  0  0  0  0  0  0  0  0  0  0
    2.7911   -4.0436   30.0386 C   0  0  0  0  0  0  0  0  0  0  0  0
    2.5063   -2.6141   30.4899 C   0  0  0  0  0  0  0  0  0  0  0  0
    2.5339   -1.8036   29.1877 C   0  0  2  0  0  0  0  0  0  0  0  0
    1.1880   -1.7753   28.5028 C   0  0  0  0  0  0  0  0  0  0  0  0
    0.5093   -2.8449   28.1158 N   0  0  0  0  0  0  0  0  0  0  0  0
   -0.6311   -2.3824   27.5178 C   0  0  0  0  0  0  0  0  0  0  0  0
   -1.6837   -3.0997   26.9305 C   0  0  0  0  0  0  0  0  0  0  0  0
   -2.7535   -2.3913   26.3711 C   0  0  0  0  0  0  0  0  0  0  0  0
   -2.7735   -0.9960   26.3956 C   0  0  0  0  0  0  0  0  0  0  0  0
   -1.7316   -0.2651   26.9788 C   0  0  0  0  0  0  0  0  0  0  0  0
   -0.6728   -0.9945   27.5358 C   0  0  0  0  0  0  0  0  0  0  0  0
    0.4909   -0.6273   28.1784 N   0  0  0  0  0  0  0  0  0  0  0  0
    0.8712    0.7429   28.4275 C   0  0  0  0  0  0  0  0  0  0  0  0
  1  2  1  0
  2  3  1  0
  3  4  2  0
  4  5  1  0
  5  6  2  0
  6  7  1  0
  7  8  2  0
  8  9  1  0
  9 10  2  0
  9 11  1  0
 11 12  1  0
 12 13  1  0
 13 14  1  0
 14 15  1  0
 15 16  1  6
 16 17  2  0
 17 18  1  0
 18 19  2  0
 19 20  1  0
 20 21  2  0
 21 22  1  0
 22 23  2  0
 23 24  1  0
 24 25  1  0
  8  3  1  0
 15 11  1  0
 24 16  1  0
 23 18  1  0
M  END
