
     RDKit          3D

 31 34  0  0  0  0  0  0  0  0999 V2000
    8.3830    8.6809   26.1062 C   0  0  0  0  0  0  0  0  0  0  0  0
    7.2682    9.6638   26.1029 C   0  0  0  0  0  0  0  0  0  0  0  0
    7.2959   11.0435   25.9854 C   0  0  0  0  0  0  0  0  0  0  0  0
    5.9544   11.5090   26.0203 C   0  0  0  0  0  0  0  0  0  0  0  0
    5.1300   10.4078   26.1728 C   0  0  0  0  0  0  0  0  0  0  0  0
    3.6513   10.3227   26.2662 C   0  0  0  0  0  0  0  0  0  0  0  0
    5.9475    9.3118   26.1884 N   0  0  0  0  0  0  0  0  0  0  0  0
    5.5210    8.0658   26.4716 N   0  0  0  0  0  0  0  0  0  0  0  0
    5.6542    7.0803   25.5206 C   0  0  0  0  0  0  0  0  0  0  0  0
    6.1656    7.2323   24.4163 O   0  0  0  0  0  0  0  0  0  0  0  0
    5.1567    5.7313   25.9165 C   0  0  0  0  0  0  0  0  0  0  0  0
    4.8725    4.7304   24.9794 C   0  0  0  0  0  0  0  0  0  0  0  0
    4.3916    3.4870   25.4085 C   0  0  0  0  0  0  0  0  0  0  0  0
    4.1957    3.2230   26.7723 C   0  0  0  0  0  0  0  0  0  0  0  0
    3.6933    1.9484   27.1136 N   0  0  0  0  0  0  0  0  0  0  0  0
    4.4073    0.7699   27.2412 C   0  0  0  0  0  0  0  0  0  0  0  0
    5.6167    0.6387   27.0729 O   0  0  0  0  0  0  0  0  0  0  0  0
    3.5782   -0.4522   27.6239 C   0  0  2  0  0  0  0  0  0  0  0  0
    3.8578   -0.9328   29.0356 C   0  0  0  0  0  0  0  0  0  0  0  0
    4.8356   -2.0678   28.8450 C   0  0  0  0  0  0  0  0  0  0  0  0
    5.5009   -2.5203   29.7621 O   0  0  0  0  0  0  0  0  0  0  0  0
    4.8181   -2.4440   27.4927 N   0  0  0  0  0  0  0  0  0  0  0  0
    5.5198   -3.5407   26.9101 C   0  0  0  0  0  0  0  0  0  0  0  0
    6.8870   -3.4686   26.5899 C   0  0  0  0  0  0  0  0  0  0  0  0
    7.5616   -4.5528   26.0140 C   0  0  0  0  0  0  0  0  0  0  0  0
    6.8829   -5.7352   25.7433 C   0  0  0  0  0  0  0  0  0  0  0  0
    5.5274   -5.8320   26.0513 C   0  0  0  0  0  0  0  0  0  0  0  0
    4.8552   -4.7478   26.6328 C   0  0  0  0  0  0  0  0  0  0  0  0
    3.8661   -1.6482   26.7421 C   0  0  0  0  0  0  0  0  0  0  0  0
    4.5017    4.2194   27.7030 C   0  0  0  0  0  0  0  0  0  0  0  0
    4.9835    5.4627   27.2785 C   0  0  0  0  0  0  0  0  0  0  0  0
  1  2  1  0
  2  3  2  0
  3  4  1  0
  4  5  2  0
  5  6  1  0
  5  7  1  0
  7  8  1  0
  8  9  1  0
  9 10  2  0
  9 11  1  0
 11 12  2  0
 12 13  1  0
 13 14  2  0
 14 15  1  0
 15 16  1  0
 16 17  2  0
 18 16  1  6
 18 19  1  0
 19 20  1  0
 20 21  2  0
 20 22  1  0
 22 23  1  0
 23 24  2  0
 24 25  1  0
 25 26  2  0
 26 27  1  0
 27 28  2  0
 22 29  1  0
 14 30  1  0
 30 31  2  0
  7  2  1  0
 31 11  1  0
 29 18  1  0
 28 23  1  0
M  END
