
     RDKit          3D

 23 25  0  0  0  0  0  0  0  0999 V2000
    6.8210    1.9135   25.0603 O   0  0  0  0  0  0  0  0  0  0  0  0
    7.8577    2.4966   24.7581 C   0  0  0  0  0  0  0  0  0  0  0  0
    8.4151    3.4187   25.7628 C   0  0  0  0  0  0  0  0  0  0  0  0
    8.7038    2.9317   27.0427 C   0  0  0  0  0  0  0  0  0  0  0  0
    9.2075    3.7986   28.0134 C   0  0  0  0  0  0  0  0  0  0  0  0
    9.4050    5.1452   27.7034 C   0  0  0  0  0  0  0  0  0  0  0  0
    9.0899    5.6165   26.4308 C   0  0  0  0  0  0  0  0  0  0  0  0
    9.2752    6.9118   26.1452 F   0  0  0  0  0  0  0  0  0  0  0  0
    8.5878    4.7684   25.4530 C   0  0  0  0  0  0  0  0  0  0  0  0
    8.5225    2.3390   23.5383 N   0  0  0  0  0  0  0  0  0  0  0  0
    9.7576    3.0463   23.1953 C   0  0  0  0  0  0  0  0  0  0  0  0
   11.0201    2.3722   23.7302 C   0  0  0  0  0  0  0  0  0  0  0  0
   11.2295    0.9380   23.2487 C   0  0  0  0  0  0  0  0  0  0  0  0
   10.2588   -0.2687   24.2052 S   0  0  0  0  0  0  0  0  0  0  0  0
    8.6170   -0.1845   23.3794 C   0  0  0  0  0  0  0  0  0  0  0  0
    8.2160    1.1468   22.7121 C   0  0  1  0  0  0  0  0  0  0  0  0
    6.7290    1.1149   22.2425 C   0  0  0  0  0  0  0  0  0  0  0  0
    6.5537    0.9955   20.7765 N   0  0  0  0  0  0  0  0  0  0  0  0
    5.1613    0.6561   20.4072 C   0  0  0  0  0  0  0  0  0  0  0  0
    5.0194    0.4338   18.8916 C   0  0  0  0  0  0  0  0  0  0  0  0
    5.8917   -0.6065   18.4354 O   0  0  0  0  0  0  0  0  0  0  0  0
    7.2517   -0.2708   18.7399 C   0  0  0  0  0  0  0  0  0  0  0  0
    7.4460   -0.0657   20.2502 C   0  0  0  0  0  0  0  0  0  0  0  0
  1  2  2  0
  2  3  1  0
  3  4  2  0
  4  5  1  0
  5  6  2  0
  6  7  1  0
  7  8  1  0
  7  9  2  0
  2 10  1  0
 10 11  1  0
 11 12  1  0
 12 13  1  0
 13 14  1  0
 14 15  1  0
 15 16  1  0
 16 17  1  1
 17 18  1  0
 18 19  1  0
 19 20  1  0
 20 21  1  0
 21 22  1  0
 22 23  1  0
  9  3  1  0
 16 10  1  0
 23 18  1  0
M  END
