
     RDKit          3D

 26 28  0  0  0  0  0  0  0  0999 V2000
    6.8536    1.3540   19.9144 C   0  0  0  0  0  0  0  0  0  0  0  0
    7.3622    0.0323   19.7971 O   0  0  0  0  0  0  0  0  0  0  0  0
    7.1241   -0.8187   20.8448 C   0  0  0  0  0  0  0  0  0  0  0  0
    7.5042   -0.5740   22.1700 C   0  0  0  0  0  0  0  0  0  0  0  0
    7.2093   -1.4955   23.1979 C   0  0  0  0  0  0  0  0  0  0  0  0
    7.6002   -1.2101   24.6328 C   0  0  1  0  0  0  0  0  0  0  0  0
    6.4469   -1.4339   25.4518 O   0  0  0  0  0  0  0  0  0  0  0  0
    8.7033   -2.0965   25.1547 C   0  0  0  0  0  0  0  0  0  0  0  0
    8.5270   -3.3675   25.4758 N   0  0  0  0  0  0  0  0  0  0  0  0
    9.7558   -3.8286   25.8614 C   0  0  0  0  0  0  0  0  0  0  0  0
   10.1215   -5.1187   26.2756 C   0  0  0  0  0  0  0  0  0  0  0  0
   11.4536   -5.3674   26.6198 C   0  0  0  0  0  0  0  0  0  0  0  0
   12.4032   -4.3496   26.5521 C   0  0  0  0  0  0  0  0  0  0  0  0
   12.0544   -3.0559   26.1424 C   0  0  0  0  0  0  0  0  0  0  0  0
   10.7139   -2.8191   25.8028 C   0  0  0  0  0  0  0  0  0  0  0  0
   10.0140   -1.7054   25.3764 N   0  0  0  0  0  0  0  0  0  0  0  0
   10.5480   -0.3563   25.1941 C   0  0  0  0  0  0  0  0  0  0  0  0
   10.5206    0.4696   26.4829 C   0  0  0  0  0  0  0  0  0  0  0  0
   11.9298   -0.3609   24.5395 C   0  0  0  0  0  0  0  0  0  0  0  0
    6.5517   -2.6902   22.8696 C   0  0  0  0  0  0  0  0  0  0  0  0
    6.1790   -2.9429   21.5512 C   0  0  0  0  0  0  0  0  0  0  0  0
    5.4890   -4.0959   21.2831 O   0  0  0  0  0  0  0  0  0  0  0  0
    4.7752   -4.5173   22.4451 C   0  0  0  0  0  0  0  0  0  0  0  0
    6.4290   -2.0002   20.5479 C   0  0  0  0  0  0  0  0  0  0  0  0
    6.0483   -2.2868   19.2592 O   0  0  0  0  0  0  0  0  0  0  0  0
    5.2296   -1.2331   18.7507 C   0  0  0  0  0  0  0  0  0  0  0  0
  1  2  1  0
  2  3  1  0
  3  4  2  0
  4  5  1  0
  5  6  1  0
  6  7  1  1
  6  8  1  0
  8  9  2  0
  9 10  1  0
 10 11  2  0
 11 12  1  0
 12 13  2  0
 13 14  1  0
 14 15  2  0
 15 16  1  0
 16 17  1  0
 17 18  1  0
 17 19  1  0
  5 20  2  0
 20 21  1  0
 21 22  1  0
 22 23  1  0
 21 24  2  0
 24 25  1  0
 25 26  1  0
 24  3  1  0
 16  8  1  0
 15 10  1  0
M  END
