
     RDKit          3D

 12 12  0  0  0  0  0  0  0  0999 V2000
   13.3806    1.3109   23.5229 C   0  0  0  0  0  0  0  0  0  0  0  0
   12.6101    0.2768   24.2954 C   0  0  0  0  0  0  0  0  0  0  0  0
   12.0877    0.5592   25.3778 O   0  0  0  0  0  0  0  0  0  0  0  0
   12.4685   -0.9918   23.8249 N   0  0  0  0  0  0  0  0  0  0  0  0
   11.8020   -2.0945   24.3721 C   0  0  0  0  0  0  0  0  0  0  0  0
   10.5259   -2.3455   24.0108 N   0  0  0  0  0  0  0  0  0  0  0  0
    9.9074   -3.4207   24.5579 C   0  0  0  0  0  0  0  0  0  0  0  0
   10.5106   -4.2737   25.4644 C   0  0  0  0  0  0  0  0  0  0  0  0
    9.5760   -5.7465   26.1759 Br  0  0  0  0  0  0  0  0  0  0  0  0
   11.8224   -4.0187   25.8380 C   0  0  0  0  0  0  0  0  0  0  0  0
   12.4797   -2.9153   25.2865 C   0  0  0  0  0  0  0  0  0  0  0  0
   14.4602   -2.5666   25.8780 I   0  0  0  0  0  0  0  0  0  0  0  0
  1  2  1  0
  2  3  2  0
  2  4  1  0
  4  5  1  0
  5  6  2  0
  6  7  1  0
  7  8  2  0
  8  9  1  0
  8 10  1  0
 10 11  2  0
 11 12  1  0
 11  5  1  0
M  END
