
     RDKit          3D

 27 30  0  0  0  0  0  0  0  0999 V2000
    3.7831    2.4785   29.5625 C   0  0  0  0  0  0  0  0  0  0  0  0
    3.0004    2.4728   28.3762 O   0  0  0  0  0  0  0  0  0  0  0  0
    3.6021    2.8952   27.2193 C   0  0  0  0  0  0  0  0  0  0  0  0
    4.7143    2.2899   26.6288 C   0  0  0  0  0  0  0  0  0  0  0  0
    5.2688    2.7846   25.4330 C   0  0  0  0  0  0  0  0  0  0  0  0
    6.4395    2.1014   24.8689 C   0  0  0  0  0  0  0  0  0  0  0  0
    6.5362    0.7909   24.6333 N   0  0  0  0  0  0  0  0  0  0  0  0
    7.7806    0.5092   24.0845 N   0  0  0  0  0  0  0  0  0  0  0  0
    8.3856    1.6553   24.0025 C   0  0  0  0  0  0  0  0  0  0  0  0
    9.8920    2.2350   23.4542 S   0  0  0  0  0  0  0  0  0  0  0  0
    9.3177    3.8626   23.9120 C   0  0  0  0  0  0  0  0  0  0  0  0
   10.1856    5.0419   23.7047 C   0  0  0  0  0  0  0  0  0  0  0  0
   11.2514    4.9291   22.8139 C   0  0  0  0  0  0  0  0  0  0  0  0
   12.1186    5.9325   22.5298 N   0  0  0  0  0  0  0  0  0  0  0  0
   11.9163    7.1086   23.1666 C   0  0  0  0  0  0  0  0  0  0  0  0
   10.8861    7.3184   24.0695 C   0  0  0  0  0  0  0  0  0  0  0  0
   10.6745    8.9914   24.9135 Br  0  0  0  0  0  0  0  0  0  0  0  0
   10.0061    6.2725   24.3446 C   0  0  0  0  0  0  0  0  0  0  0  0
    8.1173    3.9472   24.4264 N   0  0  0  0  0  0  0  0  0  0  0  0
    7.6245    2.6738   24.4620 N   0  0  0  0  0  0  0  0  0  0  0  0
    4.6869    3.9147   24.8365 C   0  0  0  0  0  0  0  0  0  0  0  0
    3.5694    4.5347   25.4053 C   0  0  0  0  0  0  0  0  0  0  0  0
    2.9420    5.6389   24.8876 O   0  0  0  0  0  0  0  0  0  0  0  0
    2.8047    6.7718   25.7343 C   0  0  0  0  0  0  0  0  0  0  0  0
    3.0477    4.0291   26.6066 C   0  0  0  0  0  0  0  0  0  0  0  0
    1.9237    4.6120   27.1497 O   0  0  0  0  0  0  0  0  0  0  0  0
    0.7610    4.1519   26.4632 C   0  0  0  0  0  0  0  0  0  0  0  0
  1  2  1  0
  2  3  1  0
  3  4  2  0
  4  5  1  0
  5  6  1  0
  6  7  2  0
  7  8  1  0
  8  9  2  0
  9 10  1  0
 10 11  1  0
 11 12  1  0
 12 13  2  0
 13 14  1  0
 14 15  2  0
 15 16  1  0
 16 17  1  0
 16 18  2  0
 11 19  2  0
 19 20  1  0
  5 21  2  0
 21 22  1  0
 22 23  1  0
 23 24  1  0
 22 25  2  0
 25 26  1  0
 26 27  1  0
 25  3  1  0
 20  6  1  0
 20  9  1  0
 18 12  1  0
M  END
