
     RDKit          3D

 32 35  0  0  0  0  0  0  0  0999 V2000
   13.8838   -0.2580   24.6039 C   0  0  0  0  0  0  0  0  0  0  0  0
   13.3986    0.2161   23.3556 O   0  0  0  0  0  0  0  0  0  0  0  0
   12.2632    0.9810   23.3695 C   0  0  0  0  0  0  0  0  0  0  0  0
   12.2300    2.3703   23.2489 C   0  0  0  0  0  0  0  0  0  0  0  0
   11.0080    3.0624   23.2816 C   0  0  0  0  0  0  0  0  0  0  0  0
    9.7877    2.3880   23.4358 C   0  0  0  0  0  0  0  0  0  0  0  0
    8.4773    3.0691   23.4804 C   0  0  0  0  0  0  0  0  0  0  0  0
    8.4622    4.5605   23.2616 C   0  0  0  0  0  0  0  0  0  0  0  0
    7.3647    2.3289   23.6792 C   0  0  0  0  0  0  0  0  0  0  0  0
    5.9528    2.8638   23.7781 C   0  0  0  0  0  0  0  0  0  0  0  0
    5.6132    3.2331   25.2229 C   0  0  0  0  0  0  0  0  0  0  0  0
    6.4743    3.6714   25.9895 O   0  0  0  0  0  0  0  0  0  0  0  0
    4.2999    3.0330   25.6394 N   0  0  0  0  0  0  0  0  0  0  0  0
    3.2397    2.4936   24.7756 C   0  0  0  0  0  0  0  0  0  0  0  0
    1.8248    2.9028   25.2307 C   0  0  0  0  0  0  0  0  0  0  0  0
    1.6328    2.6028   26.6704 N   0  0  0  0  0  0  0  0  0  0  0  0
    0.2919    2.6910   27.0795 C   0  0  0  0  0  0  0  0  0  0  0  0
   -0.5209    1.5451   27.0095 C   0  0  0  0  0  0  0  0  0  0  0  0
   -1.8611    1.5674   27.4101 C   0  0  0  0  0  0  0  0  0  0  0  0
   -2.4125    2.7461   27.8964 C   0  0  0  0  0  0  0  0  0  0  0  0
   -4.0592    2.7841   28.3905 Cl  0  0  0  0  0  0  0  0  0  0  0  0
   -1.6333    3.8937   27.9882 C   0  0  0  0  0  0  0  0  0  0  0  0
   -0.2915    3.8618   27.5868 C   0  0  0  0  0  0  0  0  0  0  0  0
    2.6556    3.2607   27.5146 C   0  0  0  0  0  0  0  0  0  0  0  0
    4.0684    2.8380   27.0765 C   0  0  0  0  0  0  0  0  0  0  0  0
    7.4235    0.8468   23.8154 C   0  0  0  0  0  0  0  0  0  0  0  0
    6.4110    0.1802   24.0105 O   0  0  0  0  0  0  0  0  0  0  0  0
    8.6644    0.2499   23.7298 O   0  0  0  0  0  0  0  0  0  0  0  0
    9.8387    1.0021   23.5549 C   0  0  0  0  0  0  0  0  0  0  0  0
   11.0498    0.2967   23.5073 C   0  0  0  0  0  0  0  0  0  0  0  0
   11.0402   -1.0675   23.6765 O   0  0  0  0  0  0  0  0  0  0  0  0
   10.8862   -1.7131   22.4130 C   0  0  0  0  0  0  0  0  0  0  0  0
  1  2  1  0
  2  3  1  0
  3  4  2  0
  4  5  1  0
  5  6  2  0
  6  7  1  0
  7  8  1  0
  7  9  2  0
  9 10  1  0
 10 11  1  0
 11 12  2  0
 11 13  1  0
 13 14  1  0
 14 15  1  0
 15 16  1  0
 16 17  1  0
 17 18  2  0
 18 19  1  0
 19 20  2  0
 20 21  1  0
 20 22  1  0
 22 23  2  0
 16 24  1  0
 24 25  1  0
  9 26  1  0
 26 27  2  0
 26 28  1  0
 28 29  1  0
 29 30  2  0
 30 31  1  0
 31 32  1  0
 30  3  1  0
 29  6  1  0
 25 13  1  0
 23 17  1  0
M  END
