
     RDKit          3D

 33 36  0  0  0  0  0  0  0  0999 V2000
   11.7607   -1.0126   22.4241 C   0  0  0  0  0  0  0  0  0  0  0  0
   11.8086   -0.8973   23.8414 O   0  0  0  0  0  0  0  0  0  0  0  0
   10.6456   -1.1367   24.5252 C   0  0  0  0  0  0  0  0  0  0  0  0
    9.5294   -0.3000   24.5017 C   0  0  0  0  0  0  0  0  0  0  0  0
    8.3870   -0.6417   25.2396 C   0  0  0  0  0  0  0  0  0  0  0  0
    7.1783    0.2282   25.2369 C   0  0  0  0  0  0  0  0  0  0  0  0
    6.2067   -0.1356   25.8873 O   0  0  0  0  0  0  0  0  0  0  0  0
    7.3094    1.3988   24.5127 N   0  0  0  0  0  0  0  0  0  0  0  0
    6.3369    2.4058   24.3345 C   0  0  0  0  0  0  0  0  0  0  0  0
    6.5772    3.7641   24.5338 C   0  0  0  0  0  0  0  0  0  0  0  0
    5.5579    4.7016   24.3400 C   0  0  0  0  0  0  0  0  0  0  0  0
    4.2813    4.2943   23.9383 C   0  0  0  0  0  0  0  0  0  0  0  0
    4.0170    2.9271   23.7558 C   0  0  0  0  0  0  0  0  0  0  0  0
    5.0533    1.9963   23.9485 C   0  0  0  0  0  0  0  0  0  0  0  0
    2.6540    2.4335   23.3230 C   0  0  0  0  0  0  0  0  0  0  0  0
    1.6205    3.4615   23.3427 N   0  0  0  0  0  0  0  0  0  0  0  0
    0.3033    3.0140   23.2351 C   0  0  0  0  0  0  0  0  0  0  0  0
   -0.0699    1.9167   23.6446 O   0  0  0  0  0  0  0  0  0  0  0  0
   -0.7098    3.9121   22.6341 C   0  0  0  0  0  0  0  0  0  0  0  0
   -1.4159    3.5252   21.4881 C   0  0  0  0  0  0  0  0  0  0  0  0
   -2.3454    4.3975   20.9207 C   0  0  0  0  0  0  0  0  0  0  0  0
   -2.5561    5.6562   21.4861 C   0  0  0  0  0  0  0  0  0  0  0  0
   -1.8332    6.0510   22.6143 C   0  0  0  0  0  0  0  0  0  0  0  0
   -0.9026    5.1825   23.1860 C   0  0  0  0  0  0  0  0  0  0  0  0
    2.0534    4.7836   22.8880 C   0  0  0  0  0  0  0  0  0  0  0  0
    3.1846    5.3140   23.7651 C   0  0  0  0  0  0  0  0  0  0  0  0
    8.3408   -1.8333   25.9780 C   0  0  0  0  0  0  0  0  0  0  0  0
    9.4454   -2.6841   26.0046 C   0  0  0  0  0  0  0  0  0  0  0  0
    9.5120   -3.8600   26.7037 O   0  0  0  0  0  0  0  0  0  0  0  0
    8.5051   -4.8311   26.4511 C   0  0  0  0  0  0  0  0  0  0  0  0
   10.5873   -2.3337   25.2621 C   0  0  0  0  0  0  0  0  0  0  0  0
   11.7035   -3.1400   25.3158 O   0  0  0  0  0  0  0  0  0  0  0  0
   12.7566   -2.4639   26.0019 C   0  0  0  0  0  0  0  0  0  0  0  0
  1  2  1  0
  2  3  1  0
  3  4  2  0
  4  5  1  0
  5  6  1  0
  6  7  2  0
  6  8  1  0
  8  9  1  0
  9 10  2  0
 10 11  1  0
 11 12  2  0
 12 13  1  0
 13 14  2  0
 13 15  1  0
 15 16  1  0
 16 17  1  0
 17 18  2  0
 17 19  1  0
 19 20  2  0
 20 21  1  0
 21 22  2  0
 22 23  1  0
 23 24  2  0
 16 25  1  0
 25 26  1  0
  5 27  2  0
 27 28  1  0
 28 29  1  0
 29 30  1  0
 28 31  2  0
 31 32  1  0
 32 33  1  0
 31  3  1  0
 14  9  1  0
 24 19  1  0
 26 12  1  0
M  END
