
     RDKit          3D

 11 11  0  0  0  0  0  0  0  0999 V2000
   13.8525    5.2683   22.1854 O   0  0  0  0  0  0  0  0  0  0  0  0
   13.5009    4.6509   23.1691 C   0  0  0  0  0  0  0  0  0  0  0  0
   14.3190    4.4992   24.2279 O   0  0  0  0  0  0  0  0  0  0  0  0
   12.2025    3.9937   23.4035 C   0  0  0  0  0  0  0  0  0  0  0  0
   11.0409    4.7802   23.4673 C   0  0  0  0  0  0  0  0  0  0  0  0
    9.8069    4.1686   23.6592 C   0  0  0  0  0  0  0  0  0  0  0  0
    8.0735    5.2907   23.7551 I   0  0  0  0  0  0  0  0  0  0  0  0
    9.7693    2.7904   23.7805 C   0  0  0  0  0  0  0  0  0  0  0  0
   10.8704    2.0053   23.7268 N   0  0  0  0  0  0  0  0  0  0  0  0
   12.0728    2.6141   23.5377 C   0  0  0  0  0  0  0  0  0  0  0  0
   13.5612    1.4265   23.5526 Br  0  0  0  0  0  0  0  0  0  0  0  0
  1  2  2  0
  2  3  1  0
  2  4  1  0
  4  5  2  0
  5  6  1  0
  6  7  1  0
  6  8  2  0
  8  9  1  0
  9 10  2  0
 10 11  1  0
 10  4  1  0
M  END
