
     RDKit          3D

 25 27  0  0  0  0  0  0  0  0999 V2000
   -2.0644   -6.2996   28.1266 C   0  0  0  0  0  0  0  0  0  0  0  0
   -1.7603   -4.9669   27.7375 O   0  0  0  0  0  0  0  0  0  0  0  0
   -0.6150   -4.4193   28.2545 C   0  0  0  0  0  0  0  0  0  0  0  0
    0.6655   -4.9638   28.1022 C   0  0  0  0  0  0  0  0  0  0  0  0
    1.8001   -4.3206   28.6369 C   0  0  0  0  0  0  0  0  0  0  0  0
    3.1790   -4.9301   28.4810 C   0  0  0  0  0  0  0  0  0  0  0  0
    4.2074   -3.9629   28.0629 N   0  0  0  0  0  0  0  0  0  0  0  0
    4.9406   -3.4060   29.2081 C   0  0  0  0  0  0  0  0  0  0  0  0
    6.3527   -2.9403   28.8364 C   0  0  1  0  0  0  0  0  0  0  0  0
    7.2013   -4.1490   28.4258 C   0  0  0  0  0  0  0  0  0  0  0  0
    6.3884   -5.1345   27.5850 C   0  0  0  0  0  0  0  0  0  0  0  0
    5.1021   -4.5095   27.0203 C   0  0  2  0  0  0  0  0  0  0  0  0
    5.4074   -3.4067   25.9744 C   0  0  0  0  0  0  0  0  0  0  0  0
    6.3390   -2.3406   26.3649 N   0  0  0  0  0  0  0  0  0  0  0  0
    6.8837   -1.4711   25.4147 C   0  0  0  0  0  0  0  0  0  0  0  0
    7.3928   -0.1369   25.9078 C   0  0  0  0  0  0  0  0  0  0  0  0
    6.9371   -1.7391   24.2128 O   0  0  0  0  0  0  0  0  0  0  0  0
    6.3222   -1.8556   27.7480 C   0  0  0  0  0  0  0  0  0  0  0  0
    1.6346   -3.1248   29.3483 C   0  0  0  0  0  0  0  0  0  0  0  0
    0.3619   -2.5800   29.5070 C   0  0  0  0  0  0  0  0  0  0  0  0
    0.2399   -1.4255   30.2386 O   0  0  0  0  0  0  0  0  0  0  0  0
    1.4278   -1.2044   31.0005 C   0  0  0  0  0  0  0  0  0  0  0  0
   -0.7641   -3.2404   28.9981 C   0  0  0  0  0  0  0  0  0  0  0  0
   -2.0048   -2.6731   29.1742 O   0  0  0  0  0  0  0  0  0  0  0  0
   -2.2945   -1.8065   28.0815 C   0  0  0  0  0  0  0  0  0  0  0  0
  1  2  1  0
  2  3  1  0
  3  4  2  0
  4  5  1  0
  5  6  1  0
  6  7  1  0
  7  8  1  0
  9  8  1  6
  9 10  1  0
 10 11  1  0
 12 11  1  1
 12 13  1  0
 13 14  1  0
 14 15  1  0
 15 16  1  0
 15 17  2  0
 14 18  1  0
  5 19  2  0
 19 20  1  0
 20 21  1  0
 21 22  1  0
 20 23  2  0
 23 24  1  0
 24 25  1  0
 23  3  1  0
 12  7  1  0
 18  9  1  0
M  END
