
     RDKit          3D

 24 27  0  0  0  0  0  0  0  0999 V2000
   12.9323    5.8948   23.3470 C   0  0  0  0  0  0  0  0  0  0  0  0
   13.7588    4.9393   22.6957 O   0  0  0  0  0  0  0  0  0  0  0  0
   13.1020    3.6852   22.4825 C   0  0  0  0  0  0  0  0  0  0  0  0
   13.5899    2.6155   23.4784 C   0  0  0  0  0  0  0  0  0  0  0  0
   13.0799    1.2626   23.1959 N   0  0  0  0  0  0  0  0  0  0  0  0
   14.1292    0.2399   23.2922 C   0  0  0  0  0  0  0  0  0  0  0  0
   13.6395   -1.1150   23.8223 C   0  0  1  0  0  0  0  0  0  0  0  0
   13.1226   -0.9307   25.2565 C   0  0  0  0  0  0  0  0  0  0  0  0
   12.2305    0.3104   25.3726 C   0  0  0  0  0  0  0  0  0  0  0  0
   11.8870    0.9291   24.0056 C   0  0  2  0  0  0  0  0  0  0  0  0
   10.9361    0.0257   23.1627 C   0  0  0  0  0  0  0  0  0  0  0  0
   11.1910   -1.4227   23.2058 N   0  0  0  0  0  0  0  0  0  0  0  0
   10.2525   -2.1252   22.3096 C   0  0  0  0  0  0  0  0  0  0  0  0
    8.9059   -1.4848   22.2763 C   0  0  0  0  0  0  0  0  0  0  0  0
    7.9723   -1.1942   23.2492 C   0  0  0  0  0  0  0  0  0  0  0  0
    6.8846   -0.5797   22.5855 C   0  0  0  0  0  0  0  0  0  0  0  0
    7.2137   -0.5277   21.2456 C   0  0  0  0  0  0  0  0  0  0  0  0
    6.3246    0.0644   20.1087 C   0  0  0  0  0  0  0  0  0  0  0  0
    6.6730    0.0982   18.7412 C   0  0  0  0  0  0  0  0  0  0  0  0
    5.6054    0.7000   18.1194 C   0  0  0  0  0  0  0  0  0  0  0  0
    4.7094    0.9835   19.1080 N   0  0  0  0  0  0  0  0  0  0  0  0
    5.1203    0.6080   20.3302 N   0  0  0  0  0  0  0  0  0  0  0  0
    8.4504   -1.0793   21.0557 O   0  0  0  0  0  0  0  0  0  0  0  0
   12.5880   -1.7666   22.8969 C   0  0  0  0  0  0  0  0  0  0  0  0
  1  2  1  0
  2  3  1  0
  3  4  1  0
  4  5  1  0
  5  6  1  0
  7  6  1  6
  7  8  1  0
  8  9  1  0
 10  9  1  1
 10 11  1  0
 11 12  1  0
 12 13  1  0
 13 14  1  0
 14 15  2  0
 15 16  1  0
 16 17  2  0
 17 18  1  0
 18 19  1  0
 19 20  2  0
 20 21  1  0
 21 22  1  0
 17 23  1  0
 12 24  1  0
 10  5  1  0
 23 14  1  0
 24  7  1  0
 22 18  2  0
M  END
