
     RDKit          3D

 25 27  0  0  0  0  0  0  0  0999 V2000
    8.5283   -5.2975   27.8390 C   0  0  0  0  0  0  0  0  0  0  0  0
    9.9162   -5.3791   27.2111 C   0  0  0  0  0  0  0  0  0  0  0  0
   10.0182   -4.6414   25.9313 N   0  0  0  0  0  0  0  0  0  0  0  0
    9.4730   -5.4894   24.8571 C   0  0  0  0  0  0  0  0  0  0  0  0
   11.4191   -4.2622   25.6449 C   0  0  0  0  0  0  0  0  0  0  0  0
   11.6380   -2.7657   25.3575 C   0  0  2  0  0  0  0  0  0  0  0  0
   11.1053   -2.4093   23.9599 C   0  0  0  0  0  0  0  0  0  0  0  0
   11.8857   -1.2522   23.5007 N   0  0  0  0  0  0  0  0  0  0  0  0
   11.3531    0.0086   24.0365 C   0  0  0  0  0  0  0  0  0  0  0  0
   10.3772    0.5945   23.0739 C   0  0  0  0  0  0  0  0  0  0  0  0
   10.3787    1.8909   22.5235 C   0  0  0  0  0  0  0  0  0  0  0  0
    9.3737    2.0951   21.6722 N   0  0  0  0  0  0  0  0  0  0  0  0
    8.6801    0.9286   21.6703 N   0  0  0  0  0  0  0  0  0  0  0  0
    7.5085    0.7790   20.8763 C   0  0  0  0  0  0  0  0  0  0  0  0
    6.4607    1.7118   20.9372 C   0  0  0  0  0  0  0  0  0  0  0  0
    5.3199    1.5407   20.1449 C   0  0  0  0  0  0  0  0  0  0  0  0
    5.2194    0.4433   19.2921 C   0  0  0  0  0  0  0  0  0  0  0  0
    6.2590   -0.4771   19.2349 C   0  0  0  0  0  0  0  0  0  0  0  0
    6.1581   -1.5306   18.4138 F   0  0  0  0  0  0  0  0  0  0  0  0
    7.3997   -0.3226   20.0147 C   0  0  0  0  0  0  0  0  0  0  0  0
    9.2718   -0.0016   22.4993 C   0  0  0  0  0  0  0  0  0  0  0  0
   13.2428   -1.5575   23.9819 C   0  0  0  0  0  0  0  0  0  0  0  0
   13.0782   -2.1947   25.3663 C   0  0  2  0  0  0  0  0  0  0  0  0
   14.2451   -3.1289   25.6709 C   0  0  0  0  0  0  0  0  0  0  0  0
   15.1159   -2.5521   26.6325 O   0  0  0  0  0  0  0  0  0  0  0  0
  1  2  1  0
  2  3  1  0
  3  4  1  0
  3  5  1  0
  6  5  1  6
  6  7  1  0
  7  8  1  0
  8  9  1  0
  9 10  1  0
 10 11  1  0
 11 12  2  0
 12 13  1  0
 13 14  1  0
 14 15  2  0
 15 16  1  0
 16 17  2  0
 17 18  1  0
 18 19  1  0
 18 20  2  0
 13 21  1  0
  8 22  1  0
 22 23  1  0
 23 24  1  6
 24 25  1  0
 23  6  1  0
 21 10  2  0
 20 14  1  0
M  END
