
     RDKit          3D

 29 32  0  0  0  0  0  0  0  0999 V2000
   -1.6425    5.9603   27.3527 C   0  0  0  0  0  0  0  0  0  0  0  0
   -1.6934    6.4666   26.0171 O   0  0  0  0  0  0  0  0  0  0  0  0
   -0.4232    6.6772   25.5449 C   0  0  0  0  0  0  0  0  0  0  0  0
    0.5726    6.9496   26.4819 C   0  0  0  0  0  0  0  0  0  0  0  0
    1.8869    7.1778   26.0634 C   0  0  0  0  0  0  0  0  0  0  0  0
    2.9660    7.4596   27.0081 C   0  0  0  0  0  0  0  0  0  0  0  0
    3.9339    6.6073   27.3372 N   0  0  0  0  0  0  0  0  0  0  0  0
    4.7764    7.2070   28.2579 N   0  0  0  0  0  0  0  0  0  0  0  0
    4.2799    8.3897   28.4716 C   0  0  0  0  0  0  0  0  0  0  0  0
    4.7120    9.7002   29.4872 S   0  0  0  0  0  0  0  0  0  0  0  0
    3.2960   10.5803   28.9373 C   0  0  0  0  0  0  0  0  0  0  0  0
    3.0178   11.8154   29.3800 C   0  0  0  0  0  0  0  0  0  0  0  0
    1.8639   12.6207   28.9776 C   0  0  0  0  0  0  0  0  0  0  0  0
    0.8640   12.9525   29.8997 C   0  0  0  0  0  0  0  0  0  0  0  0
   -0.2305   13.7247   29.5023 C   0  0  0  0  0  0  0  0  0  0  0  0
   -0.3214   14.1686   28.1844 C   0  0  0  0  0  0  0  0  0  0  0  0
   -1.8030   15.2116   27.6459 Br  0  0  0  0  0  0  0  0  0  0  0  0
    0.6724   13.8502   27.2605 C   0  0  0  0  0  0  0  0  0  0  0  0
    1.7663   13.0774   27.6581 C   0  0  0  0  0  0  0  0  0  0  0  0
    2.4972    9.7930   27.9434 C   0  0  0  0  0  0  0  0  0  0  0  0
    1.4569   10.0657   27.3787 O   0  0  0  0  0  0  0  0  0  0  0  0
    3.1552    8.6008   27.7507 N   0  0  0  0  0  0  0  0  0  0  0  0
    2.1736    7.1817   24.6847 C   0  0  0  0  0  0  0  0  0  0  0  0
    1.1749    6.9379   23.7344 C   0  0  0  0  0  0  0  0  0  0  0  0
    1.3690    6.9212   22.3775 O   0  0  0  0  0  0  0  0  0  0  0  0
    2.5023    7.6112   21.8680 C   0  0  0  0  0  0  0  0  0  0  0  0
   -0.1345    6.6991   24.1765 C   0  0  0  0  0  0  0  0  0  0  0  0
   -1.1300    6.4358   23.2666 O   0  0  0  0  0  0  0  0  0  0  0  0
   -1.9987    7.5631   23.1636 C   0  0  0  0  0  0  0  0  0  0  0  0
  1  2  1  0
  2  3  1  0
  3  4  2  0
  4  5  1  0
  5  6  1  0
  6  7  2  0
  7  8  1  0
  8  9  2  0
  9 10  1  0
 10 11  1  0
 11 12  2  0
 12 13  1  0
 13 14  2  0
 14 15  1  0
 15 16  2  0
 16 17  1  0
 16 18  1  0
 18 19  2  0
 11 20  1  0
 20 21  2  0
 20 22  1  0
  5 23  2  0
 23 24  1  0
 24 25  1  0
 25 26  1  0
 24 27  2  0
 27 28  1  0
 28 29  1  0
 27  3  1  0
 22  6  1  0
 22  9  1  0
 19 13  1  0
M  END
