
     RDKit          3D

 34 36  0  0  0  0  0  0  0  0999 V2000
    1.6118    6.3756   19.2047 C   0  0  0  0  0  0  0  0  0  0  0  0
    2.1396    6.3318   20.5239 O   0  0  0  0  0  0  0  0  0  0  0  0
    2.9994    5.3084   20.8245 C   0  0  0  0  0  0  0  0  0  0  0  0
    2.9106    4.0142   20.3117 C   0  0  0  0  0  0  0  0  0  0  0  0
    3.8396    3.0382   20.6931 C   0  0  0  0  0  0  0  0  0  0  0  0
    4.8834    3.3358   21.5841 C   0  0  0  0  0  0  0  0  0  0  0  0
    5.8107    2.2174   21.9361 C   0  0  0  0  0  0  0  0  0  0  0  0
    6.7286    1.9181   21.1842 O   0  0  0  0  0  0  0  0  0  0  0  0
    5.5790    1.5540   23.1085 N   0  0  0  0  0  0  0  0  0  0  0  0
    6.3900    0.4481   23.5871 C   0  0  1  0  0  0  0  0  0  0  0  0
    6.4561   -0.8638   22.7505 C   0  0  0  0  0  0  0  0  0  0  0  0
    6.2332   -1.9939   23.4509 F   0  0  0  0  0  0  0  0  0  0  0  0
    7.6968   -1.0081   22.1991 F   0  0  0  0  0  0  0  0  0  0  0  0
    5.5851   -0.8377   21.7094 F   0  0  0  0  0  0  0  0  0  0  0  0
    7.7677    1.0490   23.7521 N   0  0  0  0  0  0  0  0  0  0  0  0
    8.0659    0.7474   24.9673 C   0  0  0  0  0  0  0  0  0  0  0  0
    9.2460    1.0972   25.4764 O   0  0  0  0  0  0  0  0  0  0  0  0
    7.1853    0.1054   25.7423 N   0  0  0  0  0  0  0  0  0  0  0  0
    7.2526   -0.1705   27.1824 C   0  0  2  0  0  0  0  0  0  0  0  0
    6.8882   -1.6368   27.4621 C   0  0  0  0  0  0  0  0  0  0  0  0
    7.0009   -1.9712   28.9424 C   0  0  0  0  0  0  0  0  0  0  0  0
    6.1512   -1.0303   29.7858 C   0  0  0  0  0  0  0  0  0  0  0  0
    6.5211    0.4433   29.5514 C   0  0  2  0  0  0  0  0  0  0  0  0
    5.6402    1.3266   30.4412 C   0  0  0  0  0  0  0  0  0  0  0  0
    6.4138    0.8131   28.0455 C   0  0  1  0  0  0  0  0  0  0  0  0
    6.8601    2.2610   27.7901 C   0  0  0  0  0  0  0  0  0  0  0  0
    6.0299    0.0311   25.0172 C   0  0  0  0  0  0  0  0  0  0  0  0
    4.9225   -0.2338   25.4601 O   0  0  0  0  0  0  0  0  0  0  0  0
    4.9973    4.6439   22.0758 C   0  0  0  0  0  0  0  0  0  0  0  0
    6.0136    4.9752   22.9429 O   0  0  0  0  0  0  0  0  0  0  0  0
    5.5960    4.7726   24.2985 C   0  0  0  0  0  0  0  0  0  0  0  0
    4.0327    5.6072   21.7288 C   0  0  0  0  0  0  0  0  0  0  0  0
    4.1430    6.8809   22.2408 O   0  0  0  0  0  0  0  0  0  0  0  0
    5.1280    7.6125   21.5109 C   0  0  0  0  0  0  0  0  0  0  0  0
  1  2  1  0
  2  3  1  0
  3  4  2  0
  4  5  1  0
  5  6  2  0
  6  7  1  0
  7  8  2  0
  7  9  1  0
 10  9  1  6
 10 11  1  0
 11 12  1  0
 11 13  1  0
 11 14  1  0
 10 15  1  0
 15 16  2  0
 16 17  1  0
 16 18  1  0
 19 18  1  6
 19 20  1  0
 20 21  1  0
 21 22  1  0
 22 23  1  0
 23 24  1  1
 23 25  1  0
 25 26  1  1
 18 27  1  0
 27 28  2  0
  6 29  1  0
 29 30  1  0
 30 31  1  0
 29 32  2  0
 32 33  1  0
 33 34  1  0
 32  3  1  0
 27 10  1  0
 25 19  1  0
M  END
