
     RDKit          3D

 33 37  0  0  0  0  0  0  0  0999 V2000
    8.4347   -2.6790   24.5639 C   0  0  0  0  0  0  0  0  0  0  0  0
    9.5639   -1.8877   24.9036 O   0  0  0  0  0  0  0  0  0  0  0  0
    9.8379   -0.8034   24.1091 C   0  0  0  0  0  0  0  0  0  0  0  0
    9.0225   -0.3476   23.0707 C   0  0  0  0  0  0  0  0  0  0  0  0
    9.3967    0.7578   22.2900 C   0  0  0  0  0  0  0  0  0  0  0  0
    8.5043    1.1342   21.2572 N   0  0  0  0  0  0  0  0  0  0  0  0
    7.6011    0.3317   20.5913 C   0  0  0  0  0  0  0  0  0  0  0  0
    7.5067   -0.8873   20.7266 O   0  0  0  0  0  0  0  0  0  0  0  0
    6.7759    1.0373   19.5216 C   0  0  1  0  0  0  0  0  0  0  0  0
    6.0002    0.0392   18.6043 C   0  0  1  0  0  0  0  0  0  0  0  0
    5.1805   -0.8850   19.4562 C   0  0  0  0  0  0  0  0  0  0  0  0
    4.2218   -0.1223   19.9901 C   0  0  0  0  0  0  0  0  0  0  0  0
    4.4014    1.2469   19.3849 C   0  0  1  0  0  0  0  0  0  0  0  0
    3.3074    2.2476   19.6679 C   0  0  0  0  0  0  0  0  0  0  0  0
    3.7467    2.7983   20.9600 N   0  0  0  0  0  0  0  0  0  0  0  0
    2.8764    3.4952   21.8387 C   0  0  0  0  0  0  0  0  0  0  0  0
    1.5962    2.9939   22.1271 C   0  0  0  0  0  0  0  0  0  0  0  0
    0.7291    3.6710   22.9960 C   0  0  0  0  0  0  0  0  0  0  0  0
    1.1306    4.8620   23.5886 C   0  0  0  0  0  0  0  0  0  0  0  0
    0.0699    5.6920   24.6546 Cl  0  0  0  0  0  0  0  0  0  0  0  0
    2.3878    5.3838   23.3114 C   0  0  0  0  0  0  0  0  0  0  0  0
    3.2519    4.7041   22.4426 C   0  0  0  0  0  0  0  0  0  0  0  0
    5.1277    2.5340   21.1672 C   0  0  0  0  0  0  0  0  0  0  0  0
    5.8497    2.7782   22.1188 O   0  0  0  0  0  0  0  0  0  0  0  0
    5.6386    1.9934   19.8705 C   0  0  1  0  0  0  0  0  0  0  0  0
    4.9009    0.8982   18.0903 O   0  0  0  0  0  0  0  0  0  0  0  0
   10.5909    1.4255   22.5738 C   0  0  0  0  0  0  0  0  0  0  0  0
   11.4189    0.9953   23.6166 C   0  0  0  0  0  0  0  0  0  0  0  0
   12.6043    1.5909   23.9673 O   0  0  0  0  0  0  0  0  0  0  0  0
   13.7997    0.8933   23.6415 C   0  0  0  0  0  0  0  0  0  0  0  0
   11.0461   -0.1357   24.3605 C   0  0  0  0  0  0  0  0  0  0  0  0
   11.8340   -0.5525   25.4116 O   0  0  0  0  0  0  0  0  0  0  0  0
   11.7575    0.3936   26.4741 C   0  0  0  0  0  0  0  0  0  0  0  0
  1  2  1  0
  2  3  1  0
  3  4  2  0
  4  5  1  0
  5  6  1  0
  6  7  1  0
  7  8  2  0
  9  7  1  1
  9 10  1  0
 10 11  1  1
 11 12  2  0
 13 12  1  1
 13 14  1  0
 14 15  1  0
 15 16  1  0
 16 17  2  0
 17 18  1  0
 18 19  2  0
 19 20  1  0
 19 21  1  0
 21 22  2  0
 15 23  1  0
 23 24  2  0
 25 23  1  1
 13 26  1  0
  5 27  2  0
 27 28  1  0
 28 29  1  0
 29 30  1  0
 28 31  2  0
 31 32  1  0
 32 33  1  0
 31  3  1  0
 25  9  1  0
 26 10  1  0
 25 13  1  0
 22 16  1  0
M  END
