
     RDKit          3D

 25 26  0  0  0  0  0  0  0  0999 V2000
    6.0394    0.1343   27.1089 C   0  0  0  0  0  0  0  0  0  0  0  0
    5.9968    0.0308   25.6915 O   0  0  0  0  0  0  0  0  0  0  0  0
    6.4096   -1.1530   25.1353 C   0  0  0  0  0  0  0  0  0  0  0  0
    5.6526   -2.3331   25.1080 C   0  0  0  0  0  0  0  0  0  0  0  0
    6.1548   -3.4954   24.5089 C   0  0  0  0  0  0  0  0  0  0  0  0
    5.4418   -4.7072   24.4265 N   0  0  0  0  0  0  0  0  0  0  0  0
    5.1910   -5.4802   23.3048 C   0  0  0  0  0  0  0  0  0  0  0  0
    5.5609   -5.2419   22.1585 O   0  0  0  0  0  0  0  0  0  0  0  0
    4.3720   -6.7400   23.6257 C   0  0  0  0  0  0  0  0  0  0  0  0
    3.1304   -6.8099   22.8673 N   0  0  0  0  0  0  0  0  0  0  0  0
    2.0826   -6.0165   23.2930 C   0  0  0  0  0  0  0  0  0  0  0  0
    1.0143   -5.9894   22.4936 N   0  0  0  0  0  0  0  0  0  0  0  0
   -0.0340   -5.2338   22.8772 C   0  0  0  0  0  0  0  0  0  0  0  0
   -1.2313   -5.2103   21.9749 C   0  0  0  0  0  0  0  0  0  0  0  0
   -0.0322   -4.5093   24.0502 C   0  0  0  0  0  0  0  0  0  0  0  0
    1.1070   -4.5982   24.8192 C   0  0  0  0  0  0  0  0  0  0  0  0
    1.2052   -3.8484   26.1136 C   0  0  0  0  0  0  0  0  0  0  0  0
    2.1602   -5.3660   24.4662 N   0  0  0  0  0  0  0  0  0  0  0  0
    7.4395   -3.4796   23.9542 C   0  0  0  0  0  0  0  0  0  0  0  0
    8.2110   -2.3203   24.0012 C   0  0  0  0  0  0  0  0  0  0  0  0
    9.4489   -2.3575   23.4137 O   0  0  0  0  0  0  0  0  0  0  0  0
    9.3288   -2.2080   21.9989 C   0  0  0  0  0  0  0  0  0  0  0  0
    7.6871   -1.1492   24.5568 C   0  0  0  0  0  0  0  0  0  0  0  0
    8.4466   -0.0036   24.5779 O   0  0  0  0  0  0  0  0  0  0  0  0
    7.9149    0.9404   23.6483 C   0  0  0  0  0  0  0  0  0  0  0  0
  1  2  1  0
  2  3  1  0
  3  4  2  0
  4  5  1  0
  5  6  1  0
  6  7  1  0
  7  8  2  0
  7  9  1  0
  9 10  1  0
 10 11  1  0
 11 12  2  0
 12 13  1  0
 13 14  1  0
 13 15  2  0
 15 16  1  0
 16 17  1  0
 16 18  2  0
  5 19  2  0
 19 20  1  0
 20 21  1  0
 21 22  1  0
 20 23  2  0
 23 24  1  0
 24 25  1  0
 23  3  1  0
 18 11  1  0
M  END
