
     RDKit          3D

 25 28  0  0  0  0  0  0  0  0999 V2000
   -1.5482   -2.0710   25.7634 C   0  0  0  0  0  0  0  0  0  0  0  0
   -1.2889   -3.1755   26.7156 C   0  0  0  0  0  0  0  0  0  0  0  0
   -0.6764   -4.2916   26.2994 N   0  0  0  0  0  0  0  0  0  0  0  0
   -0.5591   -5.0933   27.4198 O   0  0  0  0  0  0  0  0  0  0  0  0
   -1.1019   -4.4594   28.4941 C   0  0  0  0  0  0  0  0  0  0  0  0
   -0.9990   -5.1713   29.7817 C   0  0  0  0  0  0  0  0  0  0  0  0
   -1.6216   -3.2479   28.0924 C   0  0  0  0  0  0  0  0  0  0  0  0
   -2.2714   -2.2493   28.9075 C   0  0  0  0  0  0  0  0  0  0  0  0
   -3.4937   -2.2303   29.0189 O   0  0  0  0  0  0  0  0  0  0  0  0
   -1.4585   -1.3517   29.5773 N   0  0  0  0  0  0  0  0  0  0  0  0
   -0.0207   -1.5004   29.8365 C   0  0  0  0  0  0  0  0  0  0  0  0
    0.3872   -0.2291   30.5975 C   0  0  1  0  0  0  0  0  0  0  0  0
    0.6659    0.8390   29.6834 O   0  0  0  0  0  0  0  0  0  0  0  0
    1.6135    0.5338   28.7291 C   0  0  0  0  0  0  0  0  0  0  0  0
    2.4490   -0.5340   29.0130 C   0  0  0  0  0  0  0  0  0  0  0  0
    3.4384   -0.8601   28.0913 C   0  0  0  0  0  0  0  0  0  0  0  0
    3.5570   -0.1078   26.9278 C   0  0  0  0  0  0  0  0  0  0  0  0
    2.6760    0.9446   26.7342 C   0  0  0  0  0  0  0  0  0  0  0  0
    1.7073    1.2872   27.6121 N   0  0  0  0  0  0  0  0  0  0  0  0
   -0.9019    0.0520   31.3998 C   0  0  1  0  0  0  0  0  0  0  0  0
   -0.9925    1.3160   32.0441 O   0  0  0  0  0  0  0  0  0  0  0  0
   -1.4012    2.4089   31.2303 C   0  0  0  0  0  0  0  0  0  0  0  0
   -2.6935    2.1093   30.4873 C   0  0  0  0  0  0  0  0  0  0  0  0
   -2.5239    0.8840   29.6028 C   0  0  0  0  0  0  0  0  0  0  0  0
   -2.0333   -0.3079   30.4245 C   0  0  1  0  0  0  0  0  0  0  0  0
  1  2  1  0
  2  3  2  0
  3  4  1  0
  4  5  1  0
  5  6  1  0
  5  7  2  0
  7  8  1  0
  8  9  2  0
  8 10  1  0
 10 11  1  0
 11 12  1  0
 12 13  1  6
 13 14  1  0
 14 15  2  0
 15 16  1  0
 16 17  2  0
 17 18  1  0
 18 19  2  0
 12 20  1  0
 20 21  1  6
 21 22  1  0
 22 23  1  0
 23 24  1  0
 25 24  1  6
  7  2  1  0
 25 10  1  0
 19 14  1  0
 25 20  1  0
M  END
