
     RDKit          3D

 25 27  0  0  0  0  0  0  0  0999 V2000
   11.1995    0.6122   26.4636 C   0  0  0  0  0  0  0  0  0  0  0  0
   11.5453    0.3339   25.1046 O   0  0  0  0  0  0  0  0  0  0  0  0
   10.4863   -0.2314   24.4456 C   0  0  0  0  0  0  0  0  0  0  0  0
    9.3537    0.5559   24.2486 C   0  0  0  0  0  0  0  0  0  0  0  0
    8.2362    0.0059   23.6143 C   0  0  0  0  0  0  0  0  0  0  0  0
    7.0035    0.8062   23.3595 C   0  0  0  0  0  0  0  0  0  0  0  0
    6.2816    1.0708   24.3144 O   0  0  0  0  0  0  0  0  0  0  0  0
    6.8186    1.2096   22.0486 N   0  0  0  0  0  0  0  0  0  0  0  0
    5.7453    1.9710   21.5362 C   0  0  0  0  0  0  0  0  0  0  0  0
    5.9814    3.3576   21.3484 C   0  0  0  0  0  0  0  0  0  0  0  0
    4.9945    4.2047   20.8303 C   0  0  0  0  0  0  0  0  0  0  0  0
    3.7928    3.6230   20.5134 C   0  0  0  0  0  0  0  0  0  0  0  0
    2.6550    4.1583   19.9866 N   0  0  0  0  0  0  0  0  0  0  0  0
    1.7423    3.1412   19.8377 C   0  0  0  0  0  0  0  0  0  0  0  0
    0.6177    3.2771   19.3781 O   0  0  0  0  0  0  0  0  0  0  0  0
    2.2683    1.9195   20.2769 O   0  0  0  0  0  0  0  0  0  0  0  0
    3.5444    2.2790   20.6840 C   0  0  0  0  0  0  0  0  0  0  0  0
    4.5013    1.4249   21.1936 C   0  0  0  0  0  0  0  0  0  0  0  0
    8.2680   -1.3238   23.1618 C   0  0  0  0  0  0  0  0  0  0  0  0
    9.3974   -2.1215   23.3715 C   0  0  0  0  0  0  0  0  0  0  0  0
    9.5150   -3.4295   22.9805 O   0  0  0  0  0  0  0  0  0  0  0  0
    8.6368   -4.3721   23.5868 C   0  0  0  0  0  0  0  0  0  0  0  0
   10.4974   -1.5734   24.0481 C   0  0  0  0  0  0  0  0  0  0  0  0
   11.6249   -2.3298   24.2628 O   0  0  0  0  0  0  0  0  0  0  0  0
   11.4789   -3.0841   25.4649 C   0  0  0  0  0  0  0  0  0  0  0  0
  1  2  1  0
  2  3  1  0
  3  4  2  0
  4  5  1  0
  5  6  1  0
  6  7  2  0
  6  8  1  0
  8  9  1  0
  9 10  2  0
 10 11  1  0
 11 12  2  0
 12 13  1  0
 13 14  1  0
 14 15  2  0
 14 16  1  0
 16 17  1  0
 17 18  2  0
  5 19  2  0
 19 20  1  0
 20 21  1  0
 21 22  1  0
 20 23  2  0
 23 24  1  0
 24 25  1  0
 23  3  1  0
 18  9  1  0
 17 12  1  0
M  END
