
     RDKit          3D

 25 28  0  0  0  0  0  0  0  0999 V2000
    0.2519    3.7596   19.6083 C   0  0  0  0  0  0  0  0  0  0  0  0
    1.3922    3.8656   20.5677 C   0  0  0  0  0  0  0  0  0  0  0  0
    2.4557    4.7223   20.3310 C   0  0  0  0  0  0  0  0  0  0  0  0
    3.4955    4.7840   21.2607 C   0  0  0  0  0  0  0  0  0  0  0  0
    3.4437    3.9929   22.3989 C   0  0  0  0  0  0  0  0  0  0  0  0
    4.4716    3.9792   23.3599 N   0  0  0  0  0  0  0  0  0  0  0  0
    5.6447    4.8087   23.1951 C   0  0  0  0  0  0  0  0  0  0  0  0
    6.6527    4.2881   24.2509 C   0  0  1  0  0  0  0  0  0  0  0  0
    5.6779    3.8151   25.3511 C   0  0  0  0  0  0  0  0  0  0  0  0
    4.4520    3.3651   24.5999 C   0  0  0  0  0  0  0  0  0  0  0  0
    3.6067    2.6326   25.0901 O   0  0  0  0  0  0  0  0  0  0  0  0
    7.4764    3.1060   23.6749 C   0  0  0  0  0  0  0  0  0  0  0  0
    8.5006    2.5549   24.6730 C   0  0  0  0  0  0  0  0  0  0  0  0
    9.3486    3.6625   25.2952 C   0  0  0  0  0  0  0  0  0  0  0  0
    8.4823    4.7980   25.8437 C   0  0  0  0  0  0  0  0  0  0  0  0
    7.5930    5.3120   24.7922 N   0  0  0  0  0  0  0  0  0  0  0  0
    8.1304    6.2613   23.8993 C   0  0  0  0  0  0  0  0  0  0  0  0
    7.4567    6.7812   23.0092 O   0  0  0  0  0  0  0  0  0  0  0  0
    9.5205    6.6562   24.0891 C   0  0  0  0  0  0  0  0  0  0  0  0
   10.6022    6.4970   23.1700 C   0  0  0  0  0  0  0  0  0  0  0  0
   11.7122    7.0545   23.7623 C   0  0  0  0  0  0  0  0  0  0  0  0
   11.3874    7.5696   24.9775 O   0  0  0  0  0  0  0  0  0  0  0  0
   10.0565    7.3543   25.1565 C   0  0  0  0  0  0  0  0  0  0  0  0
    2.3752    3.1877   22.6022 N   0  0  0  0  0  0  0  0  0  0  0  0
    1.3456    3.1202   21.6880 N   0  0  0  0  0  0  0  0  0  0  0  0
  1  2  1  0
  2  3  2  0
  3  4  1  0
  4  5  2  0
  5  6  1  0
  6  7  1  0
  8  7  1  6
  8  9  1  0
  9 10  1  0
 10 11  2  0
  8 12  1  0
 12 13  1  0
 13 14  1  0
 14 15  1  0
 15 16  1  0
 16 17  1  0
 17 18  2  0
 17 19  1  0
 19 20  1  0
 20 21  2  0
 21 22  1  0
 22 23  1  0
  5 24  1  0
 24 25  2  0
 25  2  1  0
 10  6  1  0
 23 19  2  0
 16  8  1  0
M  END
