
     RDKit          3D

 23 26  0  0  0  0  0  0  0  0999 V2000
    5.8847    3.1770   23.6627 C   0  0  0  0  0  0  0  0  0  0  0  0
    6.6079    2.4706   24.7451 C   0  0  0  0  0  0  0  0  0  0  0  0
    6.0105    2.2380   25.9202 N   0  0  0  0  0  0  0  0  0  0  0  0
    6.9286    1.5308   26.6737 O   0  0  0  0  0  0  0  0  0  0  0  0
    8.0683    1.3518   25.9537 C   0  0  0  0  0  0  0  0  0  0  0  0
    9.1195    0.5440   26.6025 C   0  0  0  0  0  0  0  0  0  0  0  0
    7.9359    1.9737   24.7306 C   0  0  0  0  0  0  0  0  0  0  0  0
    8.8924    2.0084   23.6504 C   0  0  0  0  0  0  0  0  0  0  0  0
    9.0949    1.0141   22.9575 O   0  0  0  0  0  0  0  0  0  0  0  0
    9.5433    3.2054   23.4157 N   0  0  0  0  0  0  0  0  0  0  0  0
   10.5400    3.4507   22.3793 C   0  0  0  0  0  0  0  0  0  0  0  0
   11.0220    4.8725   22.6201 C   0  0  0  0  0  0  0  0  0  0  0  0
   10.8323    5.0519   24.1224 C   0  0  0  0  0  0  0  0  0  0  0  0
    9.5610    4.2522   24.4327 C   0  0  1  0  0  0  0  0  0  0  0  0
    8.3190    5.0764   24.2979 C   0  0  0  0  0  0  0  0  0  0  0  0
    7.5046    5.0996   23.2561 N   0  0  0  0  0  0  0  0  0  0  0  0
    6.4900    5.9880   23.5117 N   0  0  0  0  0  0  0  0  0  0  0  0
    6.6907    6.4908   24.7085 C   0  0  0  0  0  0  0  0  0  0  0  0
    5.9723    7.4445   25.4802 C   0  0  0  0  0  0  0  0  0  0  0  0
    6.4177    7.7779   26.7073 C   0  0  0  0  0  0  0  0  0  0  0  0
    7.6195    7.1783   27.2663 C   0  0  0  0  0  0  0  0  0  0  0  0
    8.3016    6.2786   26.5363 C   0  0  0  0  0  0  0  0  0  0  0  0
    7.8397    5.9402   25.2634 N   0  0  0  0  0  0  0  0  0  0  0  0
  1  2  1  0
  2  3  2  0
  3  4  1  0
  4  5  1  0
  5  6  1  0
  5  7  2  0
  7  8  1  0
  8  9  2  0
  8 10  1  0
 10 11  1  0
 11 12  1  0
 12 13  1  0
 13 14  1  0
 14 15  1  6
 15 16  2  0
 16 17  1  0
 17 18  2  0
 18 19  1  0
 19 20  2  0
 20 21  1  0
 21 22  2  0
 22 23  1  0
  7  2  1  0
 14 10  1  0
 23 15  1  0
 23 18  1  0
M  END
