
     RDKit          3D

 17 18  0  0  0  0  0  0  0  0999 V2000
    5.7898   -4.8594   21.0073 O   0  0  0  0  0  0  0  0  0  0  0  0
    6.0825   -3.6760   20.9117 C   0  0  0  0  0  0  0  0  0  0  0  0
    5.4269   -2.8433   20.0753 O   0  0  0  0  0  0  0  0  0  0  0  0
    7.1702   -3.0471   21.6930 C   0  0  0  0  0  0  0  0  0  0  0  0
    7.4225   -1.7357   21.5205 C   0  0  0  0  0  0  0  0  0  0  0  0
    8.4766   -1.0417   22.2521 C   0  0  0  0  0  0  0  0  0  0  0  0
    8.7399    0.9917   21.8703 I   0  0  0  0  0  0  0  0  0  0  0  0
    9.2224   -1.7465   23.1326 C   0  0  0  0  0  0  0  0  0  0  0  0
   10.3177   -1.1927   23.9437 C   0  0  0  0  0  0  0  0  0  0  0  0
   11.6467   -1.5349   23.6628 C   0  0  0  0  0  0  0  0  0  0  0  0
   12.6839   -1.0189   24.4415 C   0  0  0  0  0  0  0  0  0  0  0  0
   12.3990   -0.1634   25.5051 C   0  0  0  0  0  0  0  0  0  0  0  0
   11.0782    0.1776   25.7933 C   0  0  0  0  0  0  0  0  0  0  0  0
   10.0384   -0.3365   25.0166 C   0  0  0  0  0  0  0  0  0  0  0  0
    8.9748   -3.0913   23.3196 N   0  0  0  0  0  0  0  0  0  0  0  0
    8.0019   -3.7981   22.6644 C   0  0  0  0  0  0  0  0  0  0  0  0
    7.8115   -4.9968   22.8581 O   0  0  0  0  0  0  0  0  0  0  0  0
  1  2  2  0
  2  3  1  0
  2  4  1  0
  4  5  2  0
  5  6  1  0
  6  7  1  0
  6  8  2  0
  8  9  1  0
  9 10  2  0
 10 11  1  0
 11 12  2  0
 12 13  1  0
 13 14  2  0
  8 15  1  0
 15 16  1  0
 16 17  2  0
 16  4  1  0
 14  9  1  0
M  END
