
     RDKit          3D

 25 26  0  0  0  0  0  0  0  0999 V2000
    3.0019    2.6807   19.9305 C   0  0  0  0  0  0  0  0  0  0  0  0
    4.1470    1.9482   19.2601 C   0  0  0  0  0  0  0  0  0  0  0  0
    4.2855    0.6343   19.8199 O   0  0  0  0  0  0  0  0  0  0  0  0
    5.3920   -0.0488   19.4379 C   0  0  0  0  0  0  0  0  0  0  0  0
    5.5464   -0.6697   18.4006 O   0  0  0  0  0  0  0  0  0  0  0  0
    6.3987    0.0896   20.5097 C   0  0  0  0  0  0  0  0  0  0  0  0
    7.6000   -0.4969   20.3846 C   0  0  0  0  0  0  0  0  0  0  0  0
    8.6538   -0.4077   21.4025 C   0  0  0  0  0  0  0  0  0  0  0  0
    9.4919   -1.5064   21.6096 C   0  0  0  0  0  0  0  0  0  0  0  0
   10.5167   -1.4490   22.5582 C   0  0  0  0  0  0  0  0  0  0  0  0
   10.7352   -0.2877   23.3127 C   0  0  0  0  0  0  0  0  0  0  0  0
   11.8317   -0.2154   24.3540 C   0  0  1  0  0  0  0  0  0  0  0  0
   11.7725   -1.3863   25.3514 C   0  0  0  0  0  0  0  0  0  0  0  0
   13.2014   -1.9098   25.4438 C   0  0  0  0  0  0  0  0  0  0  0  0
   14.0462   -0.7932   24.8592 C   0  0  0  0  0  0  0  0  0  0  0  0
   13.1863   -0.3069   23.7871 N   0  0  0  0  0  0  0  0  0  0  0  0
   13.6760    0.8892   23.0959 C   0  0  0  0  0  0  0  0  0  0  0  0
   13.7361    2.2134   23.8955 C   0  0  0  0  0  0  0  0  0  0  0  0
   12.5745    3.0934   23.7014 N   0  0  0  0  0  0  0  0  0  0  0  0
   12.6152    3.8150   22.4301 C   0  0  0  0  0  0  0  0  0  0  0  0
   13.3116    5.1660   22.5869 C   0  0  0  0  0  0  0  0  0  0  0  0
   12.4525    6.2009   23.3003 C   0  0  0  0  0  0  0  0  0  0  0  0
   13.1767    7.4243   23.3724 O   0  0  0  0  0  0  0  0  0  0  0  0
    9.9052    0.8187   23.0877 C   0  0  0  0  0  0  0  0  0  0  0  0
    8.8789    0.7609   22.1393 C   0  0  0  0  0  0  0  0  0  0  0  0
  1  2  1  0
  2  3  1  0
  3  4  1  0
  4  5  2  0
  4  6  1  0
  6  7  2  0
  7  8  1  0
  8  9  2  0
  9 10  1  0
 10 11  2  0
 12 11  1  6
 12 13  1  0
 13 14  1  0
 14 15  1  0
 15 16  1  0
 16 17  1  0
 17 18  1  0
 18 19  1  0
 19 20  1  0
 20 21  1  0
 21 22  1  0
 22 23  1  0
 11 24  1  0
 24 25  2  0
 25  8  1  0
 16 12  1  0
M  END
