
     RDKit          3D

 25 27  0  0  0  0  0  0  0  0999 V2000
    5.6099    0.3125   18.1551 C   0  0  0  0  0  0  0  0  0  0  0  0
    4.9889    0.9028   19.4085 C   0  0  0  0  0  0  0  0  0  0  0  0
    5.2316   -0.0008   20.4849 O   0  0  0  0  0  0  0  0  0  0  0  0
    6.5181   -0.1232   20.9399 C   0  0  0  0  0  0  0  0  0  0  0  0
    7.4026    0.9469   21.1122 C   0  0  0  0  0  0  0  0  0  0  0  0
    8.7066    0.7291   21.5677 C   0  0  0  0  0  0  0  0  0  0  0  0
    9.1534   -0.5637   21.8538 C   0  0  0  0  0  0  0  0  0  0  0  0
   10.5691   -0.8087   22.3334 C   0  0  0  0  0  0  0  0  0  0  0  0
   10.8486   -0.2032   23.6415 N   0  0  0  0  0  0  0  0  0  0  0  0
   11.9974    0.7047   23.6501 C   0  0  0  0  0  0  0  0  0  0  0  0
   13.3788    0.0855   23.4418 C   0  0  0  0  0  0  0  0  0  0  0  0
   13.7384   -0.9407   24.5052 C   0  0  0  0  0  0  0  0  0  0  0  0
   13.1974   -2.2178   24.1986 O   0  0  0  0  0  0  0  0  0  0  0  0
   11.8212   -2.4387   24.5268 C   0  0  1  0  0  0  0  0  0  0  0  0
   11.6915   -3.4402   25.7091 C   0  0  0  0  0  0  0  0  0  0  0  0
   10.8381   -4.6144   25.4616 N   0  0  0  0  0  0  0  0  0  0  0  0
    9.4241   -4.2617   25.2841 C   0  0  0  0  0  0  0  0  0  0  0  0
    8.7151   -5.5989   25.4459 C   0  0  0  0  0  0  0  0  0  0  0  0
    9.6376   -6.4307   26.3281 C   0  0  0  0  0  0  0  0  0  0  0  0
   10.8295   -5.5295   26.6089 C   0  0  0  0  0  0  0  0  0  0  0  0
   10.9142   -1.1962   24.7318 C   0  0  0  0  0  0  0  0  0  0  0  0
    8.2667   -1.6345   21.6785 C   0  0  0  0  0  0  0  0  0  0  0  0
    6.9439   -1.4290   21.2423 C   0  0  0  0  0  0  0  0  0  0  0  0
    6.0360   -2.6214   21.0535 C   0  0  0  0  0  0  0  0  0  0  0  0
    5.7428   -2.8419   19.6747 O   0  0  0  0  0  0  0  0  0  0  0  0
  1  2  1  0
  2  3  1  0
  3  4  1  0
  4  5  2  0
  5  6  1  0
  6  7  2  0
  7  8  1  0
  8  9  1  0
  9 10  1  0
 10 11  1  0
 11 12  1  0
 12 13  1  0
 13 14  1  0
 14 15  1  1
 15 16  1  0
 16 17  1  0
 17 18  1  0
 18 19  1  0
 19 20  1  0
 14 21  1  0
  7 22  1  0
 22 23  2  0
 23 24  1  0
 24 25  1  0
 23  4  1  0
 21  9  1  0
 20 16  1  0
M  END
