
     RDKit          3D

 32 33  0  0  0  0  0  0  0  0999 V2000
    4.7427    7.7598   21.7093 C   0  0  0  0  0  0  0  0  0  0  0  0
    6.2129    7.7784   21.3251 C   0  0  0  0  0  0  0  0  0  0  0  0
    7.0016    6.5381   21.7606 C   0  0  0  0  0  0  0  0  0  0  0  0
    6.9905    6.2812   23.2682 C   0  0  0  0  0  0  0  0  0  0  0  0
    7.5603    5.0002   23.5311 O   0  0  0  0  0  0  0  0  0  0  0  0
    8.9215    4.8933   23.4692 C   0  0  0  0  0  0  0  0  0  0  0  0
    9.8408    5.8086   23.9863 C   0  0  0  0  0  0  0  0  0  0  0  0
   11.2136    5.5773   23.8519 C   0  0  0  0  0  0  0  0  0  0  0  0
   11.6622    4.4205   23.2078 C   0  0  0  0  0  0  0  0  0  0  0  0
   13.4067    4.1462   23.0336 S   0  0  0  0  0  0  0  0  0  0  0  0
   13.8479    4.7600   21.8006 O   0  0  0  0  0  0  0  0  0  0  0  0
   14.0311    4.4390   24.3036 O   0  0  0  0  0  0  0  0  0  0  0  0
   13.4989    2.4874   22.8305 N   0  0  0  0  0  0  0  0  0  0  0  0
   13.3116    1.5979   23.9891 C   0  0  0  0  0  0  0  0  0  0  0  0
   13.9036    0.2161   23.6844 C   0  0  0  0  0  0  0  0  0  0  0  0
   13.8041   -0.6414   24.8779 N   0  0  0  0  0  0  0  0  0  0  0  0
   13.9298   -2.3033   24.7149 S   0  0  0  0  0  0  0  0  0  0  0  0
   14.4425   -2.5462   23.3857 O   0  0  0  0  0  0  0  0  0  0  0  0
   14.5923   -2.8083   25.8963 O   0  0  0  0  0  0  0  0  0  0  0  0
   12.2345   -2.8260   24.7497 C   0  0  0  0  0  0  0  0  0  0  0  0
   11.7808   -3.6638   25.7684 C   0  0  0  0  0  0  0  0  0  0  0  0
   10.4454   -4.0700   25.7731 C   0  0  0  0  0  0  0  0  0  0  0  0
    9.5677   -3.6567   24.7649 C   0  0  0  0  0  0  0  0  0  0  0  0
    8.2909   -4.1271   24.8956 O   0  0  0  0  0  0  0  0  0  0  0  0
    7.9404   -5.2811   24.1330 C   0  0  0  0  0  0  0  0  0  0  0  0
    6.4479   -5.2283   23.8059 C   0  0  0  0  0  0  0  0  0  0  0  0
    6.1057   -5.9964   22.5271 C   0  0  0  0  0  0  0  0  0  0  0  0
    6.1682   -5.0939   21.3048 C   0  0  0  0  0  0  0  0  0  0  0  0
   10.0365   -2.8293   23.7422 C   0  0  0  0  0  0  0  0  0  0  0  0
   11.3723   -2.4161   23.7293 C   0  0  0  0  0  0  0  0  0  0  0  0
   10.7528    3.5044   22.6782 C   0  0  0  0  0  0  0  0  0  0  0  0
    9.3849    3.7449   22.8168 C   0  0  0  0  0  0  0  0  0  0  0  0
  1  2  1  0
  2  3  1  0
  3  4  1  0
  4  5  1  0
  5  6  1  0
  6  7  2  0
  7  8  1  0
  8  9  2  0
  9 10  1  0
 10 11  2  0
 10 12  2  0
 10 13  1  0
 13 14  1  0
 14 15  1  0
 15 16  1  0
 16 17  1  0
 17 18  2  0
 17 19  2  0
 17 20  1  0
 20 21  2  0
 21 22  1  0
 22 23  2  0
 23 24  1  0
 24 25  1  0
 25 26  1  0
 26 27  1  0
 27 28  1  0
 23 29  1  0
 29 30  2  0
  9 31  1  0
 31 32  2  0
 32  6  1  0
 30 20  1  0
M  END
