@<TRIPOS>MOLECULE
m6.pdb
15 14 1 0 0
SMALL
AMBER ff14SB


@<TRIPOS>ATOM
      1 O1          3.1060   -0.4430   -0.1380 O.3       1 UNL   -0.4813
      2 N1          1.7370   -0.4200    0.3420 N.3       1 UNL   -0.3065
      3 N2          0.9130    0.3540   -0.5380 N.3       1 UNL   -0.6100
      4 C1         -0.4870    0.3490   -0.0740 C.3       1 UNL    0.7050
      5 O2         -0.5770    0.7910    1.2870 O.3       1 UNL   -0.6248
      6 O3         -1.2270    1.2730   -0.8810 O.3       1 UNL   -0.6248
      7 N3         -1.0460   -1.0020   -0.2300 N.3       1 UNL   -0.5907
      8 O4         -2.4190   -0.9030    0.2320 O.3       1 UNL   -0.4133
      9 H4         -2.8453   -1.7598    0.1559 H         1 UNL    0.4250
     10 H1          3.6466   -0.9643    0.4601 H         1 UNL    0.4330
     11 H2          1.2522    1.3051   -0.5598 H         1 UNL    0.4078
     12 H3         -1.0247   -1.2775   -1.2015 H         1 UNL    0.3988
     13 HN1         1.7136   -0.0130    1.2661 H         1 UNL    0.3928
     14 HO2        -1.4398    1.1831    1.4402 H         1 UNL    0.4440
     15 HO3        -2.1434    1.2855   -0.5952 H         1 UNL    0.4440
@<TRIPOS>BOND
     1    1    2 1
     2    2    3 1
     3    3    4 1
     4    4    5 1
     5    4    6 1
     6    4    7 1
     7    7    8 1
     8    9    8 1
     9   10    1 1
    10   11    3 1
    11   12    7 1
    12   13    2 1
    13   14    5 1
    14   15    6 1
@<TRIPOS>SUBSTRUCTURE
     1 UNL     1 RESIDUE           4 A     UNL     0 ROOT
