@<TRIPOS>MOLECULE
m9.pdb
36 38 1 0 0
SMALL
AMBER ff14SB


@<TRIPOS>ATOM
      1 C1          6.1470   -0.0690    0.3850 C.3       1 UNL   -0.0560
      2 S1          4.6250    0.8880    0.1920 S.3       1 UNL   -0.2474
      3 C2          3.4610   -0.4560    0.1280 C.ar      1 UNL    0.4806
      4 C3          2.1300   -0.1470   -0.1000 C.ar      1 UNL   -0.2103
      5 C4          1.2110   -1.1900   -0.1120 C.ar      1 UNL   -0.0866
      6 C5         -0.2150   -0.9490   -0.4210 C.2       1 UNL    0.6647
      7 O1         -0.7620   -1.8040   -1.1110 O.2       1 UNL   -0.5631
      8 N1         -0.8110    0.1870    0.1040 N.am      1 UNL   -0.3490
      9 C6         -0.2080    0.9850    1.1810 C.3       1 UNL    0.0720
     10 C7         -1.2190    2.0420    1.6180 C.3       1 UNL   -0.0451
     11 C8         -2.3690    1.7460    0.7170 C.ar      1 UNL   -0.1213
     12 C9         -3.5700    2.4370    0.7120 C.ar      1 UNL   -0.1050
     13 C10        -4.5460    2.0470   -0.1960 C.ar      1 UNL   -0.1410
     14 C11        -4.2960    0.9940   -1.0790 C.ar      1 UNL   -0.1180
     15 C12        -3.0770    0.3010   -1.0700 C.ar      1 UNL   -0.0563
     16 C13        -2.9200   -0.7640   -2.0940 C.3       1 UNL   -0.0528
     17 C14        -2.1100    0.6780   -0.1470 C.ar      1 UNL    0.0336
     18 C15         1.6370   -2.5030    0.0490 C.ar      1 UNL   -0.2203
     19 C16         2.9860   -2.7080    0.2690 C.ar      1 UNL    0.4082
     20 N2          3.9040   -1.7170    0.3230 N.ar      1 UNL   -0.6740
     21 H3          1.8158    0.8733   -0.2635 H         1 UNL    0.1640
     22 H62         0.0381    0.3396    2.0242 H         1 UNL    0.0577
     23 H63         0.6963    1.4713    0.8151 H         1 UNL    0.0577
     24 H72        -1.4933    1.9209    2.6659 H         1 UNL    0.0637
     25 H73        -0.8328    3.0445    1.4338 H         1 UNL    0.0637
     26 H9         -3.7423    3.2558    1.3949 H         1 UNL    0.1350
     27 H10        -5.4974    2.5575   -0.2193 H         1 UNL    0.1330
     28 H11        -5.0602    0.7065   -1.7859 H         1 UNL    0.1340
     29 H15         0.9427   -3.3290    0.0041 H         1 UNL    0.1630
     30 H16         3.3281   -3.7231    0.4063 H         1 UNL    0.0291
     31 H131       -3.7310   -0.6942   -2.8189 H         1 UNL    0.0530
     32 H132       -1.9650   -0.6390   -2.6044 H         1 UNL    0.0530
     33 H133       -2.9483   -1.7403   -1.6101 H         1 UNL    0.0530
     34 H12         7.0018    0.6070    0.4051 H         1 UNL    0.0757
     35 H13         6.1066   -0.6311    1.3180 H         1 UNL    0.0757
     36 H14         6.2501   -0.7602   -0.4515 H         1 UNL    0.0757
@<TRIPOS>BOND
     1    1    2 1
     2    2    3 1
     3    3    4 ar
     4    3   20 ar
     5    4    5 ar
     6    5    6 1
     7    5   18 ar
     8    6    7 2
     9    6    8 am
    10    8    9 1
    11    8   17 1
    12    9   10 1
    13   10   11 1
    14   11   12 ar
    15   11   17 ar
    16   12   13 ar
    17   13   14 ar
    18   14   15 ar
    19   15   16 1
    20   15   17 ar
    21   18   19 ar
    22   19   20 ar
    23   21    4 1
    24   22    9 1
    25   23    9 1
    26   24   10 1
    27   25   10 1
    28   26   12 1
    29   27   13 1
    30   28   14 1
    31   29   18 1
    32   30   19 1
    33   31   16 1
    34   32   16 1
    35   33   16 1
    36   34    1 1
    37   35    1 1
    38   36    1 1
@<TRIPOS>SUBSTRUCTURE
     1 UNL     1 RESIDUE           4 A     UNL     0 ROOT
