
     RDKit          3D

 34 37  0  0  0  0  0  0  0  0999 V2000
   -0.1210   -2.4021    0.1411 O   0  0  0  0  0  1  0  0  0  0  0  0
    0.9522   -2.8052   -0.4259 C   0  0  0  0  0  0  0  0  0  0  0  0
    1.3697   -3.9832   -0.5815 O   0  0  0  0  0  0  0  0  0  0  0  0
    1.8528   -1.6430   -0.9849 C   0  0  2  0  0  0  0  0  0  0  0  0
    3.3236   -1.8614   -0.6108 C   0  0  0  0  0  0  0  0  0  0  0  0
    4.2270   -0.7491   -1.1756 C   0  0  2  0  0  0  0  0  0  0  0  0
    5.5566   -1.2975   -1.7226 C   0  0  0  0  0  0  0  0  0  0  0  0
    6.4844   -1.2949   -0.5264 C   0  0  0  0  0  0  0  0  0  0  0  0
    6.0296   -0.1702    0.2276 N   0  0  0  0  0  0  0  0  0  0  0  0
    4.7184    0.1642   -0.0608 C   0  0  0  0  0  0  0  0  0  0  0  0
    4.0906    1.0211    0.5378 O   0  0  0  0  0  0  0  0  0  0  0  0
    1.3793   -0.3403   -0.4865 N   0  0  0  0  0  0  0  0  0  0  0  0
    0.5889    0.4475   -1.3053 C   0  0  0  0  0  0  0  0  0  0  0  0
    0.7744    0.5707   -2.5154 O   0  0  0  0  0  0  0  0  0  0  0  0
   -0.5942    1.1145   -0.5722 C   0  0  2  0  0  0  0  0  0  0  0  0
   -0.1150    1.9830    0.6025 C   0  0  0  0  0  0  0  0  0  0  0  0
   -1.1775    2.9681    1.1434 C   0  0  0  0  0  0  0  0  0  0  0  0
   -1.5249    4.0996    0.1560 C   0  0  0  0  0  0  0  0  0  0  0  0
   -0.3851    5.1004   -0.0332 C   0  0  0  0  0  0  0  0  0  0  0  0
    0.0967    5.6711    1.3003 C   0  0  0  0  0  0  0  0  0  0  0  0
    0.4350    4.5796    2.3130 C   0  0  0  0  0  0  0  0  0  0  0  0
   -0.7158    3.5845    2.4805 C   0  0  0  0  0  0  0  0  0  0  0  0
   -1.4536    0.0153   -0.1237 N   0  0  0  0  0  0  0  0  0  0  0  0
   -2.7868   -0.0387   -0.4586 C   0  0  0  0  0  0  0  0  0  0  0  0
   -3.3940    0.9563   -0.8575 O   0  0  0  0  0  0  0  0  0  0  0  0
   -3.4201   -1.3380   -0.3303 C   0  0  0  0  0  0  0  0  0  0  0  0
   -2.7881   -2.5359   -0.0654 N   0  0  0  0  0  0  0  0  0  0  0  0
   -3.6890   -3.5779   -0.0626 C   0  0  0  0  0  0  0  0  0  0  0  0
   -3.4768   -4.9454    0.1454 C   0  0  0  0  0  0  0  0  0  0  0  0
   -4.5902   -5.7882    0.0726 C   0  0  0  0  0  0  0  0  0  0  0  0
   -5.8604   -5.2782   -0.1970 C   0  0  0  0  0  0  0  0  0  0  0  0
   -6.0513   -3.9052   -0.4008 C   0  0  0  0  0  0  0  0  0  0  0  0
   -4.9429   -3.0394   -0.3350 C   0  0  0  0  0  0  0  0  0  0  0  0
   -4.7647   -1.6409   -0.4939 C   0  0  0  0  0  0  0  0  0  0  0  0
  1  2  1  0
  2  3  2  0
  2  4  1  0
  4  5  1  1
  6  5  1  1
  6  7  1  0
  7  8  1  0
  8  9  1  0
  9 10  1  0
 10 11  2  0
  4 12  1  0
 12 13  1  0
 13 14  2  0
 13 15  1  0
 15 16  1  1
 16 17  1  0
 17 18  1  0
 18 19  1  0
 19 20  1  0
 20 21  1  0
 21 22  1  0
 15 23  1  0
 23 24  1  0
 24 25  2  0
 24 26  1  0
 26 27  1  0
 27 28  1  0
 28 29  2  0
 29 30  1  0
 30 31  2  0
 31 32  1  0
 32 33  2  0
 33 34  1  0
 10  6  1  0
 22 17  1  0
 34 26  2  0
 33 28  1  0
M  CHG  1   1  -1
M  END

