
     RDKit          3D

 31 32  0  0  0  0  0  0  0  0999 V2000
   10.0223   -1.3143   22.6087 C   0  0  0  0  0  0  0  0  0  0  0  0
   11.3808   -1.7104   22.4838 O   0  0  0  0  0  0  0  0  0  0  0  0
   12.0159   -2.1607   23.6151 C   0  0  0  0  0  0  0  0  0  0  0  0
   11.4336   -3.0052   24.5666 C   0  0  0  0  0  0  0  0  0  0  0  0
   12.1651   -3.4483   25.6810 C   0  0  0  0  0  0  0  0  0  0  0  0
   11.5177   -4.3481   26.7065 C   0  0  0  0  0  0  0  0  0  0  0  0
   11.0309   -5.5726   26.0754 N   0  0  0  0  0  0  0  0  0  0  0  0
    9.7995   -6.0433   26.7056 C   0  0  0  0  0  0  0  0  0  0  0  0
    8.6018   -5.6952   25.8175 C   0  0  0  0  0  0  0  0  0  0  0  0
    7.9507   -4.3527   26.1679 C   0  0  0  0  0  0  0  0  0  0  0  0
    6.5371   -4.1280   25.6145 C   0  0  0  0  0  0  0  0  0  0  0  0
    6.5253   -3.5098   24.2092 C   0  0  0  0  0  0  0  0  0  0  0  0
    7.2195   -4.3439   23.2155 N   0  0  0  0  0  0  0  0  0  0  0  0
    7.3144   -3.6508   21.9078 C   0  0  0  0  0  0  0  0  0  0  0  0
    5.9891   -3.6044   21.1260 C   0  0  0  0  0  0  0  0  0  0  0  0
    5.4470   -4.9168   20.9316 O   0  0  0  0  0  0  0  0  0  0  0  0
    5.2634   -5.5838   22.1868 C   0  0  0  0  0  0  0  0  0  0  0  0
    6.5795   -5.6586   22.9808 C   0  0  0  0  0  0  0  0  0  0  0  0
   13.4870   -3.0200   25.8396 C   0  0  0  0  0  0  0  0  0  0  0  0
   14.0744   -2.1689   24.9006 C   0  0  0  0  0  0  0  0  0  0  0  0
   13.3440   -1.7302   23.7925 C   0  0  0  0  0  0  0  0  0  0  0  0
   13.8571   -0.9128   22.8173 O   0  0  0  0  0  0  0  0  0  0  0  0
   14.3781    0.3523   23.2416 C   0  0  0  0  0  0  0  0  0  0  0  0
   13.2125    1.3459   23.3445 C   0  0  1  0  0  0  0  0  0  0  0  0
   12.6286    1.2885   24.6558 O   0  0  0  0  0  0  0  0  0  0  0  0
   13.6848    2.7957   23.0970 C   0  0  0  0  0  0  0  0  0  0  0  0
   12.5788    3.6565   22.6093 N   0  0  0  0  0  0  0  0  0  0  0  0
   12.9645    4.3579   21.3784 C   0  0  0  0  0  0  0  0  0  0  0  0
   12.0673    4.6087   23.6219 C   0  0  0  0  0  0  0  0  0  0  0  0
   13.0110    5.8120   23.7508 C   0  0  0  0  0  0  0  0  0  0  0  0
   10.6249    5.0835   23.4092 C   0  0  0  0  0  0  0  0  0  0  0  0
  1  2  1  0
  2  3  1  0
  3  4  2  0
  4  5  1  0
  5  6  1  0
  6  7  1  0
  7  8  1  0
  8  9  1  0
  9 10  1  0
 10 11  1  0
 11 12  1  0
 12 13  1  0
 13 14  1  0
 14 15  1  0
 15 16  1  0
 16 17  1  0
 17 18  1  0
  5 19  2  0
 19 20  1  0
 20 21  2  0
 21 22  1  0
 22 23  1  0
 23 24  1  0
 24 25  1  1
 24 26  1  0
 26 27  1  0
 27 28  1  0
 27 29  1  0
 29 30  1  0
 29 31  1  0
 21  3  1  0
 18 13  1  0
M  END
