
     RDKit          3D

 31 33  0  0  0  0  0  0  0  0999 V2000
    7.1997   -0.1746   18.7129 C   0  0  0  0  0  0  0  0  0  0  0  0
    5.6843   -0.2552   18.6474 C   0  0  0  0  0  0  0  0  0  0  0  0
    5.0442    0.9047   19.2362 N   0  0  0  0  0  0  0  0  0  0  0  0
    5.5157    1.6660   20.2662 C   0  0  0  0  0  0  0  0  0  0  0  0
    4.5782    2.6597   20.4783 C   0  0  0  0  0  0  0  0  0  0  0  0
    4.5924    3.7501   21.4918 C   0  0  0  0  0  0  0  0  0  0  0  0
    5.3650    4.8965   21.0072 N   0  0  0  0  0  0  0  0  0  0  0  0
    5.7133    5.8620   22.0522 C   0  0  0  0  0  0  0  0  0  0  0  0
    7.1518    5.7553   22.5008 C   0  0  0  0  0  0  0  0  0  0  0  0
    7.6314    4.5858   23.1078 C   0  0  0  0  0  0  0  0  0  0  0  0
    8.9784    4.4711   23.4669 C   0  0  0  0  0  0  0  0  0  0  0  0
    9.8575    5.5260   23.2234 C   0  0  0  0  0  0  0  0  0  0  0  0
   11.1909    5.5076   23.5295 O   0  0  0  0  0  0  0  0  0  0  0  0
   11.9704    4.6133   22.7290 C   0  0  0  0  0  0  0  0  0  0  0  0
   12.9017    3.8128   23.6439 C   0  0  2  0  0  0  0  0  0  0  0  0
   14.0966    4.5648   23.9008 O   0  0  0  0  0  0  0  0  0  0  0  0
   13.2938    2.4517   23.0226 C   0  0  0  0  0  0  0  0  0  0  0  0
   12.6903    1.3288   23.7901 N   0  0  0  0  0  0  0  0  0  0  0  0
   12.4211    0.1809   22.9075 C   0  0  0  0  0  0  0  0  0  0  0  0
   11.7723   -0.9810   23.6650 C   0  0  0  0  0  0  0  0  0  0  0  0
   12.5230   -1.3775   24.9381 C   0  0  0  0  0  0  0  0  0  0  0  0
   13.7144   -2.2963   24.7181 C   0  0  0  0  0  0  0  0  0  0  0  0
   14.4964   -2.1583   23.7841 O   0  0  0  0  0  0  0  0  0  0  0  0
   13.7839   -3.2940   25.6364 O   0  0  0  0  0  0  0  0  0  0  0  0
   14.8416   -3.1565   26.5840 C   0  0  0  0  0  0  0  0  0  0  0  0
   12.9376   -0.1521   25.7510 C   0  0  0  0  0  0  0  0  0  0  0  0
   13.5870    0.9288   24.8869 C   0  0  0  0  0  0  0  0  0  0  0  0
    9.3796    6.7096   22.6638 C   0  0  0  0  0  0  0  0  0  0  0  0
    8.0380    6.8209   22.2942 C   0  0  0  0  0  0  0  0  0  0  0  0
    3.5743    2.3870   19.5199 C   0  0  0  0  0  0  0  0  0  0  0  0
    3.8663    1.3377   18.7495 N   0  0  0  0  0  0  0  0  0  0  0  0
  1  2  1  0
  2  3  1  0
  3  4  1  0
  4  5  2  0
  5  6  1  0
  6  7  1  0
  7  8  1  0
  8  9  1  0
  9 10  2  0
 10 11  1  0
 11 12  2  0
 12 13  1  0
 13 14  1  0
 14 15  1  0
 15 16  1  6
 15 17  1  0
 17 18  1  0
 18 19  1  0
 19 20  1  0
 20 21  1  0
 21 22  1  0
 22 23  2  0
 22 24  1  0
 24 25  1  0
 21 26  1  0
 26 27  1  0
 12 28  1  0
 28 29  2  0
  5 30  1  0
 30 31  2  0
 31  3  1  0
 29  9  1  0
 27 18  1  0
M  END
