
     RDKit          3D

 31 33  0  0  0  0  0  0  0  0999 V2000
    1.7921    6.7767   19.1777 C   0  0  0  0  0  0  0  0  0  0  0  0
    1.3678    5.3125   19.2125 C   0  0  0  0  0  0  0  0  0  0  0  0
    2.5093    4.3954   19.2622 N   0  0  0  0  0  0  0  0  0  0  0  0
    2.1485    3.0030   18.9269 C   0  0  0  0  0  0  0  0  0  0  0  0
    3.0980    1.9140   19.5038 C   0  0  0  0  0  0  0  0  0  0  0  0
    4.4707    2.4058   19.6779 N   0  0  0  0  0  0  0  0  0  0  0  0
    5.4188    1.3719   20.1451 C   0  0  0  0  0  0  0  0  0  0  0  0
    5.5770    0.2292   19.1166 C   0  0  1  0  0  0  0  0  0  0  0  0
    6.1167    0.7628   17.8984 O   0  0  0  0  0  0  0  0  0  0  0  0
    6.4668   -0.9110   19.6367 C   0  0  0  0  0  0  0  0  0  0  0  0
    5.7177   -1.7489   20.5193 O   0  0  0  0  0  0  0  0  0  0  0  0
    6.2228   -1.9500   21.7777 C   0  0  0  0  0  0  0  0  0  0  0  0
    6.2935   -0.9590   22.7605 C   0  0  0  0  0  0  0  0  0  0  0  0
    6.8032   -1.2596   24.0261 C   0  0  0  0  0  0  0  0  0  0  0  0
    7.2437   -2.5542   24.3291 C   0  0  0  0  0  0  0  0  0  0  0  0
    7.7847   -2.8803   25.7053 C   0  0  0  0  0  0  0  0  0  0  0  0
    9.2421   -2.7108   25.8218 N   0  0  0  0  0  0  0  0  0  0  0  0
    9.9260   -3.9148   25.3030 C   0  0  0  0  0  0  0  0  0  0  0  0
   11.4650   -3.7783   25.3074 C   0  0  0  0  0  0  0  0  0  0  0  0
   11.9139   -2.6020   24.5379 N   0  0  0  0  0  0  0  0  0  0  0  0
   13.3830   -2.5232   24.4331 C   0  0  0  0  0  0  0  0  0  0  0  0
   13.7935   -1.3499   23.5337 C   0  0  0  0  0  0  0  0  0  0  0  0
   14.1435   -2.4510   25.7613 C   0  0  0  0  0  0  0  0  0  0  0  0
   11.2583   -1.3970   25.0783 C   0  0  0  0  0  0  0  0  0  0  0  0
    9.7158   -1.5287   25.0686 C   0  0  0  0  0  0  0  0  0  0  0  0
    7.1616   -3.5496   23.3427 C   0  0  0  0  0  0  0  0  0  0  0  0
    6.6466   -3.2589   22.0744 C   0  0  0  0  0  0  0  0  0  0  0  0
    6.5569   -4.1723   21.0516 O   0  0  0  0  0  0  0  0  0  0  0  0
    5.7672   -5.3285   21.2906 C   0  0  0  0  0  0  0  0  0  0  0  0
    4.4723    3.5649   20.5992 C   0  0  0  0  0  0  0  0  0  0  0  0
    3.1946    4.4461   20.5597 C   0  0  0  0  0  0  0  0  0  0  0  0
  1  2  1  0
  2  3  1  0
  3  4  1  0
  4  5  1  0
  5  6  1  0
  6  7  1  0
  7  8  1  0
  8  9  1  6
  8 10  1  0
 10 11  1  0
 11 12  1  0
 12 13  2  0
 13 14  1  0
 14 15  2  0
 15 16  1  0
 16 17  1  0
 17 18  1  0
 18 19  1  0
 19 20  1  0
 20 21  1  0
 21 22  1  0
 21 23  1  0
 20 24  1  0
 24 25  1  0
 15 26  1  0
 26 27  2  0
 27 28  1  0
 28 29  1  0
  6 30  1  0
 30 31  1  0
 31  3  1  0
 27 12  1  0
 25 17  1  0
M  END
