
     RDKit          3D

 28 34  0  0  0  0  0  0  0  0999 V2000
   10.6675    3.3546   23.1608 C   0  0  0  0  0  0  0  0  0  0  0  0
    9.7729    4.3817   23.4895 C   0  0  0  0  0  0  0  0  0  0  0  0
   10.2291    5.6873   23.7230 C   0  0  0  0  0  0  0  0  0  0  0  0
    9.2620    6.7970   24.0846 C   0  0  0  0  0  0  0  0  0  0  0  0
    7.9609    6.8790   23.3015 N   0  0  0  0  0  4  0  0  0  0  0  0
    6.9001    5.9842   23.8381 C   0  0  0  0  0  0  0  0  0  0  0  0
    5.7089    6.0492   23.0292 N   0  0  0  0  0  0  0  0  0  0  0  0
    5.1962    7.4105   23.0099 C   0  0  0  0  0  0  0  0  0  0  0  0
    6.2024    8.2960   22.4448 N   0  0  0  0  0  0  0  0  0  0  0  0
    6.4988    7.8774   21.0842 C   0  0  0  0  0  0  0  0  0  0  0  0
    7.0085    6.5166   21.1041 N   0  0  0  0  0  0  0  0  0  0  0  0
    6.0051    5.6298   21.6689 C   0  0  0  0  0  0  0  0  0  0  0  0
    8.2135    6.4556   21.8875 C   0  0  0  0  0  0  0  0  0  0  0  0
    7.3990    8.2557   23.2472 C   0  0  0  0  0  0  0  0  0  0  0  0
   11.6067    5.9341   23.6304 C   0  0  0  0  0  0  0  0  0  0  0  0
   12.5014    4.9071   23.3017 C   0  0  0  0  0  0  0  0  0  0  0  0
   12.0452    3.6014   23.0681 C   0  0  0  0  0  0  0  0  0  0  0  0
   13.0123    2.4918   22.7066 C   0  0  0  0  0  0  0  0  0  0  0  0
   12.8768    1.1711   23.4483 N   0  0  0  0  0  4  0  0  0  0  0  0
   12.6448    1.3432   24.9079 C   0  0  0  0  0  0  0  0  0  0  0  0
   12.5850    0.0682   25.5773 N   0  0  0  0  0  0  0  0  0  0  0  0
   11.4983   -0.7289   25.0298 C   0  0  0  0  0  0  0  0  0  0  0  0
   11.7300   -0.9486   23.6105 N   0  0  0  0  0  0  0  0  0  0  0  0
   12.9835   -1.6643   23.4351 C   0  0  0  0  0  0  0  0  0  0  0  0
   14.0681   -0.8685   23.9847 N   0  0  0  0  0  0  0  0  0  0  0  0
   13.8387   -0.6472   25.4026 C   0  0  0  0  0  0  0  0  0  0  0  0
   14.1475    0.3931   23.2981 C   0  0  0  0  0  0  0  0  0  0  0  0
   11.7804    0.3153   22.9195 C   0  0  0  0  0  0  0  0  0  0  0  0
  1  2  2  0
  2  3  1  0
  3  4  1  0
  4  5  1  0
  5  6  1  0
  6  7  1  0
  7  8  1  0
  8  9  1  0
  9 10  1  0
 10 11  1  0
 11 12  1  0
 11 13  1  0
  9 14  1  0
  3 15  2  0
 15 16  1  0
 16 17  2  0
 17 18  1  0
 18 19  1  0
 19 20  1  0
 20 21  1  0
 21 22  1  0
 22 23  1  0
 23 24  1  0
 24 25  1  0
 25 26  1  0
 25 27  1  0
 23 28  1  0
 17  1  1  0
 27 19  1  0
 13  5  1  0
 28 19  1  0
 14  5  1  0
 26 21  1  0
 12  7  1  0
M  CHG  2   5   1  19   1
M  END
