
     RDKit          3D

 34 36  0  0  0  0  0  0  0  0999 V2000
    4.0786    2.9029   21.9021 C   0  0  0  0  0  0  0  0  0  0  0  0
    5.2684    2.0863   22.3829 C   0  0  0  0  0  0  0  0  0  0  0  0
    5.5541    0.9215   21.4671 C   0  0  0  0  0  0  0  0  0  0  0  0
    5.5394    1.0974   20.0769 C   0  0  0  0  0  0  0  0  0  0  0  0
    5.7943    0.0235   19.2196 C   0  0  0  0  0  0  0  0  0  0  0  0
    5.7531    0.2146   17.7327 C   0  0  0  0  0  0  0  0  0  0  0  0
    6.0331   -1.2418   19.7696 C   0  0  0  0  0  0  0  0  0  0  0  0
    6.0486   -1.4384   21.1537 C   0  0  0  0  0  0  0  0  0  0  0  0
    6.3105   -2.7251   21.5351 O   0  0  0  0  0  0  0  0  0  0  0  0
    6.3682   -3.0380   22.9346 C   0  0  0  0  0  0  0  0  0  0  0  0
    7.0978   -4.3683   23.1430 C   0  0  2  0  0  0  0  0  0  0  0  0
    6.2361   -5.4564   22.7724 O   0  0  0  0  0  0  0  0  0  0  0  0
    7.6706   -4.5786   24.5650 C   0  0  0  0  0  0  0  0  0  0  0  0
    8.9986   -4.0931   24.9585 N   0  0  0  0  0  0  0  0  0  0  0  0
    9.9920   -5.1299   25.2526 C   0  0  0  0  0  0  0  0  0  0  0  0
   11.2823   -4.5161   25.8458 C   0  0  0  0  0  0  0  0  0  0  0  0
   11.8879   -3.4743   24.9804 N   0  0  0  0  0  0  0  0  0  0  0  0
   13.0414   -2.8692   25.6753 C   0  0  0  0  0  0  0  0  0  0  0  0
   13.9732   -2.0026   24.8069 C   0  0  1  0  0  0  0  0  0  0  0  0
   13.9238   -2.4974   23.4575 O   0  0  0  0  0  0  0  0  0  0  0  0
   13.5763   -0.5223   24.8083 C   0  0  0  0  0  0  0  0  0  0  0  0
   13.4728   -0.1062   23.4326 O   0  0  0  0  0  0  0  0  0  0  0  0
   12.7910    1.0661   23.2616 C   0  0  0  0  0  0  0  0  0  0  0  0
   11.4370    0.9746   22.9479 C   0  0  0  0  0  0  0  0  0  0  0  0
   10.6663    2.1341   22.8066 C   0  0  0  0  0  0  0  0  0  0  0  0
    9.2045    2.0357   22.4846 C   0  0  0  0  0  0  0  0  0  0  0  0
   11.2617    3.3824   23.0342 C   0  0  0  0  0  0  0  0  0  0  0  0
   12.6158    3.4803   23.3854 C   0  0  0  0  0  0  0  0  0  0  0  0
   13.2462    4.8275   23.6335 C   0  0  0  0  0  0  0  0  0  0  0  0
   13.2664    5.6849   22.3774 C   0  0  0  0  0  0  0  0  0  0  0  0
   13.3794    2.3091   23.4918 C   0  0  0  0  0  0  0  0  0  0  0  0
   10.8578   -2.4643   24.6452 C   0  0  0  0  0  0  0  0  0  0  0  0
    9.5665   -3.0840   24.0571 C   0  0  0  0  0  0  0  0  0  0  0  0
    5.8083   -0.3537   21.9978 C   0  0  0  0  0  0  0  0  0  0  0  0
  1  2  1  0
  2  3  1  0
  3  4  2  0
  4  5  1  0
  5  6  1  0
  5  7  2  0
  7  8  1  0
  8  9  1  0
  9 10  1  0
 10 11  1  0
 11 12  1  1
 11 13  1  0
 13 14  1  0
 14 15  1  0
 15 16  1  0
 16 17  1  0
 17 18  1  0
 18 19  1  0
 19 20  1  6
 19 21  1  0
 21 22  1  0
 22 23  1  0
 23 24  2  0
 24 25  1  0
 25 26  1  0
 25 27  2  0
 27 28  1  0
 28 29  1  0
 29 30  1  0
 28 31  2  0
 17 32  1  0
 32 33  1  0
  8 34  2  0
 34  3  1  0
 33 14  1  0
 31 23  1  0
M  END
