
     RDKit          3D

 34 36  0  0  0  0  0  0  0  0999 V2000
   12.5723    6.2464   23.8848 C   0  0  0  0  0  0  0  0  0  0  0  0
   11.8695    5.8538   22.5970 C   0  0  0  0  0  0  0  0  0  0  0  0
   11.0589    4.6967   22.7942 O   0  0  0  0  0  0  0  0  0  0  0  0
   11.6435    3.5478   23.2439 C   0  0  0  0  0  0  0  0  0  0  0  0
   10.8093    2.7344   24.0125 C   0  0  0  0  0  0  0  0  0  0  0  0
   11.2683    1.5214   24.5401 C   0  0  0  0  0  0  0  0  0  0  0  0
   12.5745    1.1008   24.3007 C   0  0  0  0  0  0  0  0  0  0  0  0
   13.1223   -0.1026   24.7905 N   0  0  0  0  0  0  0  0  0  0  0  0
   13.6112   -1.1719   24.0537 C   0  0  0  0  0  0  0  0  0  0  0  0
   13.6507   -1.2575   22.8323 O   0  0  0  0  0  0  0  0  0  0  0  0
   14.1155   -2.2816   24.9633 C   0  0  0  0  0  0  0  0  0  0  0  0
   13.0376   -2.7337   25.9540 C   0  0  0  0  0  0  0  0  0  0  0  0
   11.9416   -3.5548   25.4160 N   0  0  0  0  0  0  0  0  0  0  0  0
   10.7899   -2.7653   24.9484 C   0  0  0  0  0  0  0  0  0  0  0  0
    9.7031   -3.6606   24.3056 C   0  0  0  0  0  0  0  0  0  0  0  0
    9.2516   -4.7164   25.2276 N   0  0  0  0  0  0  0  0  0  0  0  0
    8.1515   -5.5336   24.6932 C   0  0  0  0  0  0  0  0  0  0  0  0
    6.8803   -4.7923   24.2667 C   0  0  0  0  0  0  0  0  0  0  0  0
    6.9990   -4.2461   22.8523 C   0  0  0  0  0  0  0  0  0  0  0  0
    7.5612   -4.8645   21.9566 O   0  0  0  0  0  0  0  0  0  0  0  0
    6.3999   -2.9997   22.7429 N   0  0  0  0  0  0  0  0  0  0  0  0
    6.3094   -2.1863   21.5947 C   0  0  0  0  0  0  0  0  0  0  0  0
    6.7573   -0.8664   21.7093 C   0  0  0  0  0  0  0  0  0  0  0  0
    6.7020    0.0004   20.6132 C   0  0  0  0  0  0  0  0  0  0  0  0
    6.1981   -0.4312   19.3859 C   0  0  0  0  0  0  0  0  0  0  0  0
    6.2088    0.5170   18.4035 O   0  0  0  0  0  0  0  0  0  0  0  0
    4.9655    1.0225   17.9198 C   0  0  0  0  0  0  0  0  0  0  0  0
    4.1990    1.7246   19.0273 C   0  0  0  0  0  0  0  0  0  0  0  0
    5.7542   -1.7457   19.2678 C   0  0  0  0  0  0  0  0  0  0  0  0
    5.8085   -2.6169   20.3663 C   0  0  0  0  0  0  0  0  0  0  0  0
   10.4034   -5.5076   25.6923 C   0  0  0  0  0  0  0  0  0  0  0  0
   11.4910   -4.6132   26.3353 C   0  0  0  0  0  0  0  0  0  0  0  0
   13.4089    1.9142   23.5240 C   0  0  0  0  0  0  0  0  0  0  0  0
   12.9479    3.1289   22.9979 C   0  0  0  0  0  0  0  0  0  0  0  0
  1  2  1  0
  2  3  1  0
  3  4  1  0
  4  5  2  0
  5  6  1  0
  6  7  2  0
  7  8  1  0
  8  9  1  0
  9 10  2  0
  9 11  1  0
 11 12  1  0
 12 13  1  0
 13 14  1  0
 14 15  1  0
 15 16  1  0
 16 17  1  0
 17 18  1  0
 18 19  1  0
 19 20  2  0
 19 21  1  0
 21 22  1  0
 22 23  2  0
 23 24  1  0
 24 25  2  0
 25 26  1  0
 26 27  1  0
 27 28  1  0
 25 29  1  0
 29 30  2  0
 16 31  1  0
 31 32  1  0
  7 33  1  0
 33 34  2  0
 34  4  1  0
 32 13  1  0
 30 22  1  0
M  END
