
     RDKit          3D

 32 34  0  0  0  0  0  0  0  0999 V2000
   10.8977    7.4580   24.9291 C   0  0  0  0  0  0  0  0  0  0  0  0
   12.0023    6.9243   24.0229 C   0  0  0  0  0  0  0  0  0  0  0  0
   11.4866    6.1607   22.8776 N   0  0  0  0  0  0  0  0  0  0  0  0
   10.8253    4.8958   23.2562 C   0  0  0  0  0  0  0  0  0  0  0  0
   11.7825    3.7880   23.7515 C   0  0  0  0  0  0  0  0  0  0  0  0
   12.8478    3.4787   22.7743 N   0  0  0  0  0  0  0  0  0  0  0  0
   13.7722    2.4700   23.3329 C   0  0  0  0  0  0  0  0  0  0  0  0
   13.2263    1.0308   23.4522 C   0  0  2  0  0  0  0  0  0  0  0  0
   12.4546    0.8765   24.6530 O   0  0  0  0  0  0  0  0  0  0  0  0
   14.3209   -0.0409   23.3814 C   0  0  0  0  0  0  0  0  0  0  0  0
   13.7085   -1.2552   22.9114 O   0  0  0  0  0  0  0  0  0  0  0  0
   13.1633   -2.0542   23.8839 C   0  0  0  0  0  0  0  0  0  0  0  0
   13.9291   -2.5892   24.9219 C   0  0  0  0  0  0  0  0  0  0  0  0
   13.3383   -3.4332   25.8646 C   0  0  0  0  0  0  0  0  0  0  0  0
   11.9820   -3.7706   25.7657 C   0  0  0  0  0  0  0  0  0  0  0  0
   11.3400   -4.6833   26.7848 C   0  0  0  0  0  0  0  0  0  0  0  0
   10.4724   -5.7074   26.2048 N   0  0  0  0  0  0  0  0  0  0  0  0
    9.1997   -5.8393   26.9146 C   0  0  0  0  0  0  0  0  0  0  0  0
    8.0724   -5.6619   25.9662 C   0  0  0  0  0  0  0  0  0  0  0  0
    7.9823   -5.4963   24.6056 C   0  0  0  0  0  0  0  0  0  0  0  0
    6.5945   -5.3788   24.3558 C   0  0  0  0  0  0  0  0  0  0  0  0
    5.8870   -5.1724   23.0500 C   0  0  0  0  0  0  0  0  0  0  0  0
    6.5281   -5.9922   21.9280 C   0  0  0  0  0  0  0  0  0  0  0  0
    4.3937   -5.4886   23.1586 C   0  0  0  0  0  0  0  0  0  0  0  0
    5.8911   -5.4669   25.4936 N   0  0  0  0  0  0  0  0  0  0  0  0
    6.8219   -5.6449   26.5006 O   0  0  0  0  0  0  0  0  0  0  0  0
   11.2251   -3.2495   24.7018 C   0  0  0  0  0  0  0  0  0  0  0  0
   11.8076   -2.3994   23.7543 C   0  0  0  0  0  0  0  0  0  0  0  0
   11.1445   -1.8433   22.6889 O   0  0  0  0  0  0  0  0  0  0  0  0
    9.7417   -2.0503   22.6063 C   0  0  0  0  0  0  0  0  0  0  0  0
   13.5483    4.7247   22.3932 C   0  0  0  0  0  0  0  0  0  0  0  0
   12.5744    5.8370   21.9264 C   0  0  0  0  0  0  0  0  0  0  0  0
  1  2  1  0
  2  3  1  0
  3  4  1  0
  4  5  1  0
  5  6  1  0
  6  7  1  0
  7  8  1  0
  8  9  1  1
  8 10  1  0
 10 11  1  0
 11 12  1  0
 12 13  2  0
 13 14  1  0
 14 15  2  0
 15 16  1  0
 16 17  1  0
 17 18  1  0
 18 19  1  0
 19 20  2  0
 20 21  1  0
 21 22  1  0
 22 23  1  0
 22 24  1  0
 21 25  2  0
 25 26  1  0
 15 27  1  0
 27 28  2  0
 28 29  1  0
 29 30  1  0
  6 31  1  0
 31 32  1  0
 32  3  1  0
 28 12  1  0
 26 19  1  0
M  END
