
     RDKit          3D

 35 38  0  0  0  0  0  0  0  0999 V2000
    8.1463   -2.2930   22.1551 C   0  0  0  0  0  0  0  0  0  0  0  0
    8.6329   -3.1519   23.2082 N   0  0  0  0  0  0  0  0  0  0  0  0
    9.8659   -3.0612   23.8021 C   0  0  0  0  0  0  0  0  0  0  0  0
    9.8200   -3.9554   24.8284 C   0  0  0  0  0  0  0  0  0  0  0  0
    8.6418   -4.6227   24.8731 N   0  0  0  0  0  0  0  0  0  0  0  0
    7.9457   -4.1719   23.8455 C   0  0  0  0  0  0  0  0  0  0  0  0
    6.7106   -4.6010   23.4431 N   0  0  0  0  0  0  0  0  0  0  0  0
    5.7928   -4.8765   24.5790 C   0  0  0  0  0  0  0  0  0  0  0  0
    4.3791   -5.2329   24.0741 C   0  0  0  0  0  0  0  0  0  0  0  0
    4.3803   -6.4123   23.1767 N   0  0  0  0  0  0  0  0  0  0  0  0
    3.0020   -6.6980   22.7221 C   0  0  0  0  0  0  0  0  0  0  0  0
    2.1177   -7.2403   23.8622 C   0  0  0  0  0  0  0  0  0  0  0  0
    2.8187   -8.2460   24.5970 O   0  0  0  0  0  0  0  0  0  0  0  0
    5.2910   -6.1246   22.0426 C   0  0  0  0  0  0  0  0  0  0  0  0
    6.7256   -5.7512   22.5048 C   0  0  0  0  0  0  0  0  0  0  0  0
   10.8837   -4.1546   25.6770 N   0  0  0  0  0  0  0  0  0  0  0  0
   10.8234   -5.1749   26.7098 C   0  0  0  0  0  0  0  0  0  0  0  0
   12.0679   -3.4590   25.4524 C   0  0  0  0  0  0  0  0  0  0  0  0
   13.0975   -3.7259   26.0755 O   0  0  0  0  0  0  0  0  0  0  0  0
   12.0442   -2.4590   24.4607 N   0  0  0  0  0  0  0  0  0  0  0  0
   13.2844   -1.7055   24.2520 C   0  0  0  0  0  0  0  0  0  0  0  0
   13.1809   -0.2908   24.8564 C   0  0  1  0  0  0  0  0  0  0  0  0
   13.8471   -0.2398   26.1272 O   0  0  0  0  0  0  0  0  0  0  0  0
   13.7044    0.8104   23.9002 C   0  0  0  0  0  0  0  0  0  0  0  0
   12.9928    2.1004   23.9729 N   0  0  0  0  0  0  0  0  0  0  0  0
   11.6138    2.0177   23.4324 C   0  0  0  0  0  0  0  0  0  0  0  0
   11.0723    3.3383   22.8008 C   0  0  0  0  0  0  0  0  0  0  0  0
   11.5872    4.5359   23.4840 N   0  0  0  0  0  0  0  0  0  0  0  0
   11.0475    5.8060   22.9532 C   0  0  0  0  0  0  0  0  0  0  0  0
    9.5303    5.8990   23.1412 C   0  0  0  0  0  0  0  0  0  0  0  0
    9.0185    7.0701   22.5055 O   0  0  0  0  0  0  0  0  0  0  0  0
   13.0695    4.5443   23.4319 C   0  0  0  0  0  0  0  0  0  0  0  0
   13.7483    3.1629   23.2917 C   0  0  0  0  0  0  0  0  0  0  0  0
   11.0182   -2.2781   23.5208 C   0  0  0  0  0  0  0  0  0  0  0  0
   11.1333   -1.5704   22.5223 O   0  0  0  0  0  0  0  0  0  0  0  0
  1  2  1  0
  2  3  1  0
  3  4  2  0
  4  5  1  0
  5  6  2  0
  6  7  1  0
  7  8  1  0
  8  9  1  0
  9 10  1  0
 10 11  1  0
 11 12  1  0
 12 13  1  0
 10 14  1  0
 14 15  1  0
  4 16  1  0
 16 17  1  0
 16 18  1  0
 18 19  2  0
 18 20  1  0
 20 21  1  0
 21 22  1  0
 22 23  1  1
 22 24  1  0
 24 25  1  0
 25 26  1  0
 26 27  1  0
 27 28  1  0
 28 29  1  0
 29 30  1  0
 30 31  1  0
 28 32  1  0
 32 33  1  0
 20 34  1  0
 34 35  2  0
  6  2  1  0
 15  7  1  0
 33 25  1  0
 34  3  1  0
M  END
