
     RDKit          3D

 64 71  0  0  0  0  0  0  0  0999 V2000
    2.7827   11.4115   18.6303 C   0  0  0  0  0  0  0  0  0  0  0  0
    3.4667   10.0504   18.7441 C   0  0  1  0  0  0  0  0  0  0  0  0
    4.6236   10.0372   19.7707 C   0  0  0  0  0  0  0  0  0  0  0  0
    4.3275    9.7866   21.2618 C   0  0  0  0  0  0  0  0  0  0  0  0
    5.4879    9.3047   22.1469 C   0  0  2  0  0  0  0  0  0  0  0  0
    6.2610   10.4170   22.5597 O   0  0  0  0  0  0  0  0  0  0  0  0
    6.3511    8.4066   21.4334 O   0  0  0  0  0  0  0  0  0  0  0  0
    5.8093    7.0972   21.5925 C   0  0  1  0  0  0  0  0  0  0  0  0
    6.8806    6.0069   21.7138 C   0  0  0  0  0  0  0  0  0  0  0  0
    6.1872    5.0077   22.6340 C   0  0  1  0  0  0  0  0  0  0  0  0
    6.9663    3.8182   23.2112 C   0  0  2  0  0  0  0  0  0  0  0  0
    7.5555    2.9301   22.1177 C   0  0  0  0  0  0  0  0  0  0  0  0
    8.4521    1.8782   22.7497 C   0  0  0  0  0  0  0  0  0  0  0  0
    7.7799    1.0003   23.8183 C   0  0  2  0  0  0  0  0  0  0  0  0
    7.2639   -0.3279   23.2336 C   0  0  0  0  0  0  0  0  0  0  0  0
    6.9436   -1.3242   24.3608 C   0  0  1  0  0  0  0  0  0  0  0  0
    8.1273   -1.7603   25.0519 O   0  0  0  0  0  0  0  0  0  0  0  0
    8.3318   -3.1740   25.0993 C   0  0  2  0  0  0  0  0  0  0  0  0
    7.4277   -3.7575   26.0387 O   0  0  0  0  0  0  0  0  0  0  0  0
    7.5895   -5.1758   26.1816 C   0  0  2  0  0  0  0  0  0  0  0  0
    6.4831   -5.6962   27.1117 C   0  0  0  0  0  0  0  0  0  0  0  0
    5.4594   -4.7361   27.3804 O   0  0  0  0  0  0  0  0  0  0  0  0
    8.9967   -5.4944   26.7087 C   0  0  2  0  0  0  0  0  0  0  0  0
    9.2030   -4.9068   28.0060 O   0  0  0  0  0  0  0  0  0  0  0  0
   10.0334   -4.9228   25.7464 C   0  0  2  0  0  0  0  0  0  0  0  0
   11.3457   -5.1541   26.2906 O   0  0  0  0  0  0  0  0  0  0  0  0
    9.8051   -3.4228   25.5096 C   0  0  1  0  0  0  0  0  0  0  0  0
   10.7130   -3.0230   24.4587 O   0  0  0  0  0  0  0  0  0  0  0  0
   11.6952   -2.0811   24.9146 C   0  0  2  0  0  0  0  0  0  0  0  0
   11.5019   -0.8377   24.2467 O   0  0  0  0  0  0  0  0  0  0  0  0
   12.3605    0.1978   24.7756 C   0  0  2  0  0  0  0  0  0  0  0  0
   12.2088    1.4067   23.8517 C   0  0  0  0  0  0  0  0  0  0  0  0
   13.1179    2.4247   24.2653 O   0  0  0  0  0  0  0  0  0  0  0  0
   13.8305   -0.2645   24.8718 C   0  0  1  0  0  0  0  0  0  0  0  0
   14.1456   -0.5636   26.2477 O   0  0  0  0  0  0  0  0  0  0  0  0
   14.0447   -1.5519   24.0588 C   0  0  2  0  0  0  0  0  0  0  0  0
   13.8466   -1.2841   22.6652 O   0  0  0  0  0  0  0  0  0  0  0  0
   13.1014   -2.6567   24.5911 C   0  0  1  0  0  0  0  0  0  0  0  0
   13.6488   -3.2525   25.7851 O   0  0  0  0  0  0  0  0  0  0  0  0
    6.0474   -0.7073   25.4451 C   0  0  0  0  0  0  0  0  0  0  0  0
    5.5717    0.7032   25.1190 C   0  0  0  0  0  0  0  0  0  0  0  0
    6.7100    1.7071   24.7385 C   0  0  1  0  0  0  0  0  0  0  0  0
    7.4490    2.1149   26.0403 C   0  0  0  0  0  0  0  0  0  0  0  0
    6.0064    2.9564   24.0746 C   0  0  1  0  0  0  0  0  0  0  0  0
    5.1662    3.8036   25.0799 C   0  0  0  0  0  0  0  0  0  0  0  0
    4.5452    5.0791   24.4846 C   0  0  0  0  0  0  0  0  0  0  0  0
    5.5940    5.9215   23.7409 C   0  0  1  0  0  0  0  0  0  0  0  0
    6.6588    6.4279   24.7433 C   0  0  0  0  0  0  0  0  0  0  0  0
    4.9789    7.0718   22.8926 C   0  0  1  0  0  0  0  0  0  0  0  0
    5.0650    8.5115   23.3959 C   0  0  2  0  0  0  0  0  0  0  0  0
    3.8030    8.9869   24.1057 C   0  0  0  0  0  0  0  0  0  0  0  0
    2.4520    8.9176   18.9292 C   0  0  0  0  0  0  0  0  0  0  0  0
    1.7012    8.7737   17.7231 O   0  0  0  0  0  0  0  0  0  0  0  0
    2.2879    7.8160   16.8311 C   0  0  2  0  0  0  0  0  0  0  0  0
    2.4407    8.3663   15.5280 O   0  0  0  0  0  0  0  0  0  0  0  0
    2.9821    7.4231   14.5858 C   0  0  2  0  0  0  0  0  0  0  0  0
    3.2811    8.1513   13.2656 C   0  0  0  0  0  0  0  0  0  0  0  0
    2.1021    8.5325   12.5611 O   0  0  0  0  0  0  0  0  0  0  0  0
    2.0122    6.2468   14.4217 C   0  0  1  0  0  0  0  0  0  0  0  0
    2.5180    5.2842   13.4968 O   0  0  0  0  0  0  0  0  0  0  0  0
    1.7960    5.5822   15.7825 C   0  0  2  0  0  0  0  0  0  0  0  0
    0.8297    4.5243   15.6434 O   0  0  0  0  0  0  0  0  0  0  0  0
    1.3267    6.6094   16.8081 C   0  0  1  0  0  0  0  0  0  0  0  0
    1.2449    5.9677   18.0914 O   0  0  0  0  0  0  0  0  0  0  0  0
  2  1  1  1
  2  3  1  0
  3  4  1  0
  4  5  1  0
  5  6  1  1
  5  7  1  0
  7  8  1  0
  8  9  1  1
 10  9  1  6
 10 11  1  0
 11 12  1  6
 12 13  1  0
 14 13  1  6
 14 15  1  0
 15 16  1  0
 16 17  1  1
 18 17  1  1
 18 19  1  0
 19 20  1  0
 20 21  1  1
 21 22  1  0
 20 23  1  0
 23 24  1  1
 23 25  1  0
 25 26  1  1
 25 27  1  0
 27 28  1  6
 29 28  1  6
 29 30  1  0
 30 31  1  0
 31 32  1  6
 32 33  1  0
 31 34  1  0
 34 35  1  1
 34 36  1  0
 36 37  1  6
 36 38  1  0
 38 39  1  1
 16 40  1  0
 40 41  1  0
 41 42  1  0
 42 43  1  1
 42 44  1  0
 44 45  1  1
 45 46  1  0
 46 47  1  0
 47 48  1  1
 47 49  1  0
 49 50  1  0
 50 51  1  6
  2 52  1  0
 52 53  1  0
 54 53  1  1
 54 55  1  0
 55 56  1  0
 56 57  1  6
 57 58  1  0
 56 59  1  0
 59 60  1  6
 59 61  1  0
 61 62  1  6
 61 63  1  0
 63 64  1  1
 50  5  1  0
 63 54  1  0
 49  8  1  6
 47 10  1  0
 44 11  1  0
 42 14  1  0
 27 18  1  0
 38 29  1  0
M  END
