
     RDKit          3D

 33 35  0  0  0  0  0  0  0  0999 V2000
    6.0105   -4.7193   21.0196 C   0  0  0  0  0  0  0  0  0  0  0  0
    5.7932   -3.3918   21.4838 O   0  0  0  0  0  0  0  0  0  0  0  0
    6.9123   -2.5995   21.5713 C   0  0  0  0  0  0  0  0  0  0  0  0
    8.0502   -2.9407   22.3116 C   0  0  0  0  0  0  0  0  0  0  0  0
    9.1638   -2.0844   22.3575 C   0  0  0  0  0  0  0  0  0  0  0  0
   10.3814   -2.4469   23.1820 C   0  0  0  0  0  0  0  0  0  0  0  0
   11.0488   -1.3588   23.8904 N   0  0  0  0  0  0  0  0  0  0  0  0
   11.4383   -1.6247   25.2693 C   0  0  0  0  0  0  0  0  0  0  0  0
   12.4449   -0.5215   25.6113 C   0  0  0  0  0  0  0  0  0  0  0  0
   12.7388    0.2101   24.2851 C   0  0  2  0  0  0  0  0  0  0  0  0
   14.1567    0.4216   24.2272 O   0  0  0  0  0  0  0  0  0  0  0  0
   11.9913    1.5773   24.2468 C   0  0  0  0  0  0  0  0  0  0  0  0
   11.8463    2.2344   22.9229 N   0  0  0  0  0  0  0  0  0  0  0  0
   10.5594    2.9439   22.8189 C   0  0  0  0  0  0  0  0  0  0  0  0
   10.4897    4.2215   23.6600 C   0  0  0  0  0  0  0  0  0  0  0  0
   11.6558    5.1586   23.3441 C   0  0  0  0  0  0  0  0  0  0  0  0
   11.6609    6.2959   24.2582 N   0  0  0  0  0  0  0  0  0  0  0  0
   12.4912    7.3782   24.0545 C   0  0  0  0  0  0  0  0  0  0  0  0
   12.3603    8.4569   25.0979 C   0  0  0  0  0  0  0  0  0  0  0  0
   13.2561    7.4849   23.1002 O   0  0  0  0  0  0  0  0  0  0  0  0
   12.9953    4.4176   23.3976 C   0  0  0  0  0  0  0  0  0  0  0  0
   12.9416    3.1428   22.5585 C   0  0  0  0  0  0  0  0  0  0  0  0
   12.2260   -0.7947   23.2391 C   0  0  0  0  0  0  0  0  0  0  0  0
    9.1312   -0.8953   21.6166 C   0  0  0  0  0  0  0  0  0  0  0  0
    8.0086   -0.5610   20.8554 C   0  0  0  0  0  0  0  0  0  0  0  0
    6.8991   -1.4113   20.8303 C   0  0  0  0  0  0  0  0  0  0  0  0
    5.7496   -1.1035   20.1481 O   0  0  0  0  0  0  0  0  0  0  0  0
    5.9583   -0.6356   18.8118 C   0  0  0  0  0  0  0  0  0  0  0  0
    5.0371    0.5623   18.6028 C   0  0  0  0  0  0  0  0  0  0  0  0
    4.9616    1.4800   19.8261 C   0  0  0  0  0  0  0  0  0  0  0  0
    4.3553    2.7972   19.5629 N   0  0  0  0  0  0  0  0  0  0  0  0
    2.9005    2.6611   19.4328 C   0  0  0  0  0  0  0  0  0  0  0  0
    4.6652    3.7637   20.6212 C   0  0  0  0  0  0  0  0  0  0  0  0
  1  2  1  0
  2  3  1  0
  3  4  2  0
  4  5  1  0
  5  6  1  0
  6  7  1  0
  7  8  1  0
  8  9  1  0
  9 10  1  0
 10 11  1  6
 10 12  1  0
 12 13  1  0
 13 14  1  0
 14 15  1  0
 15 16  1  0
 16 17  1  0
 17 18  1  0
 18 19  1  0
 18 20  2  0
 16 21  1  0
 21 22  1  0
 10 23  1  0
  5 24  2  0
 24 25  1  0
 25 26  2  0
 26 27  1  0
 27 28  1  0
 28 29  1  0
 29 30  1  0
 30 31  1  0
 31 32  1  0
 31 33  1  0
 26  3  1  0
 23  7  1  0
 22 13  1  0
M  END
