
     RDKit          3D

 36 39  0  0  0  0  0  0  0  0999 V2000
    2.0880    3.7796   19.0675 C   0  0  0  0  0  0  0  0  0  0  0  0
    3.3414    3.8947   19.8081 N   0  0  0  0  0  0  0  0  0  0  0  0
    3.1915    4.7523   20.9776 C   0  0  0  0  0  0  0  0  0  0  0  0
    3.9462    2.5923   20.1302 C   0  0  0  0  0  0  0  0  0  0  0  0
    4.3480    1.7122   18.9321 C   0  0  0  0  0  0  0  0  0  0  0  0
    4.9522    0.3784   19.3740 C   0  0  0  0  0  0  0  0  0  0  0  0
    6.2389    0.5528   20.0150 N   0  0  0  0  0  0  0  0  0  0  0  0
    6.3892    0.5046   21.3854 C   0  0  0  0  0  0  0  0  0  0  0  0
    5.4667    0.3376   22.1700 O   0  0  0  0  0  0  0  0  0  0  0  0
    7.7725    0.7017   21.8931 C   0  0  0  0  0  0  0  0  0  0  0  0
    8.7744   -0.1626   21.4445 C   0  0  0  0  0  0  0  0  0  0  0  0
   10.0843   -0.0122   21.9088 C   0  0  0  0  0  0  0  0  0  0  0  0
   10.3996    1.0075   22.8139 C   0  0  0  0  0  0  0  0  0  0  0  0
   11.7526    1.1479   23.3087 C   0  0  0  0  0  0  0  0  0  0  0  0
   12.3552    2.3693   23.5288 C   0  0  0  0  0  0  0  0  0  0  0  0
   13.5983    2.0960   24.0143 N   0  0  0  0  0  0  0  0  0  0  0  0
   13.8526    0.7835   24.1274 N   0  0  0  0  0  0  0  0  0  0  0  0
   12.7299    0.1862   23.6935 C   0  0  0  0  0  0  0  0  0  0  0  0
   12.6304   -1.3202   23.6659 C   0  0  1  0  0  0  0  0  0  0  0  0
   14.0060   -2.0099   23.7227 C   0  0  0  0  0  0  0  0  0  0  0  0
   14.4063   -2.3685   25.1491 C   0  0  0  0  0  0  0  0  0  0  0  0
   13.3346   -3.1900   25.8833 C   0  0  0  0  0  0  0  0  0  0  0  0
   12.0170   -3.1936   25.2144 N   0  0  0  0  0  0  0  0  0  0  0  0
   10.9552   -3.7022   26.1058 C   0  0  0  0  0  0  0  0  0  0  0  0
   10.1999   -4.9314   25.5801 C   0  0  0  0  0  0  0  0  0  0  0  0
    9.2637   -4.4925   24.5874 O   0  0  0  0  0  0  0  0  0  0  0  0
    8.4630   -5.5651   24.0841 C   0  0  0  0  0  0  0  0  0  0  0  0
    7.6093   -5.1298   22.9150 C   0  0  0  0  0  0  0  0  0  0  0  0
    6.9966   -6.0832   22.0862 C   0  0  0  0  0  0  0  0  0  0  0  0
    6.2114   -5.6837   21.0043 C   0  0  0  0  0  0  0  0  0  0  0  0
    6.0244   -4.3253   20.7485 C   0  0  0  0  0  0  0  0  0  0  0  0
    6.6081   -3.3692   21.5779 C   0  0  0  0  0  0  0  0  0  0  0  0
    7.3972   -3.7686   22.6588 C   0  0  0  0  0  0  0  0  0  0  0  0
   11.6853   -1.8203   24.7823 C   0  0  0  0  0  0  0  0  0  0  0  0
    9.3987    1.8848   23.2438 C   0  0  0  0  0  0  0  0  0  0  0  0
    8.0878    1.7378   22.7823 C   0  0  0  0  0  0  0  0  0  0  0  0
  1  2  1  0
  2  3  1  0
  2  4  1  0
  4  5  1  0
  5  6  1  0
  6  7  1  0
  7  8  1  0
  8  9  2  0
  8 10  1  0
 10 11  2  0
 11 12  1  0
 12 13  2  0
 13 14  1  0
 14 15  2  0
 15 16  1  0
 16 17  1  0
 17 18  2  0
 19 18  1  1
 19 20  1  0
 20 21  1  0
 21 22  1  0
 22 23  1  0
 23 24  1  0
 24 25  1  0
 25 26  1  0
 26 27  1  0
 27 28  1  0
 28 29  2  0
 29 30  1  0
 30 31  2  0
 31 32  1  0
 32 33  2  0
 23 34  1  0
 13 35  1  0
 35 36  2  0
 36 10  1  0
 18 14  1  0
 34 19  1  0
 33 28  1  0
M  END
