
     RDKit          3D

 33 36  0  0  0  0  0  0  0  0999 V2000
    5.4624    0.7853   17.7894 C   0  0  0  0  0  0  0  0  0  0  0  0
    5.6075    0.9446   19.1955 O   0  0  0  0  0  0  0  0  0  0  0  0
    5.6701   -0.1924   19.9495 C   0  0  0  0  0  0  0  0  0  0  0  0
    5.6031   -1.3802   19.2176 C   0  0  0  0  0  0  0  0  0  0  0  0
    5.6801   -2.6173   19.8572 C   0  0  0  0  0  0  0  0  0  0  0  0
    5.8141   -2.6878   21.2496 C   0  0  0  0  0  0  0  0  0  0  0  0
    5.9004   -4.0307   21.9263 C   0  0  0  0  0  0  0  0  0  0  0  0
    7.3460   -4.5143   22.0636 C   0  0  0  0  0  0  0  0  0  0  0  0
    7.9499   -4.0622   23.3008 N   0  0  0  0  0  0  0  0  0  0  0  0
    8.5944   -4.9350   24.1518 C   0  0  0  0  0  0  0  0  0  0  0  0
    8.7026   -6.1350   23.9213 O   0  0  0  0  0  0  0  0  0  0  0  0
    9.1560   -4.2637   25.3893 C   0  0  1  0  0  0  0  0  0  0  0  0
    8.5542   -4.8188   26.6763 C   0  0  0  0  0  0  0  0  0  0  0  0
    9.5971   -4.5103   27.6607 N   0  0  0  0  0  0  0  0  0  0  0  0
    9.3710   -5.1706   28.9366 C   0  0  0  0  0  0  0  0  0  0  0  0
   10.8443   -4.9390   27.0149 C   0  0  0  0  0  0  0  0  0  0  0  0
   10.6704   -4.5213   25.5413 C   0  0  2  0  0  0  0  0  0  0  0  0
   11.4965   -3.3126   25.1357 C   0  0  0  0  0  0  0  0  0  0  0  0
   11.0279   -2.4520   24.1342 C   0  0  0  0  0  0  0  0  0  0  0  0
   11.7558   -1.3164   23.7753 C   0  0  0  0  0  0  0  0  0  0  0  0
   12.9783   -1.0315   24.3946 C   0  0  0  0  0  0  0  0  0  0  0  0
   13.7629    0.2077   24.0282 C   0  0  0  0  0  0  0  0  0  0  0  0
   12.9738    1.3985   24.3046 N   0  0  0  0  0  0  0  0  0  0  0  0
   12.3223    2.0683   23.1709 C   0  0  0  0  0  0  0  0  0  0  0  0
   13.0633    3.2728   22.5693 C   0  0  0  0  0  0  0  0  0  0  0  0
   12.6936    4.6115   23.2042 C   0  0  0  0  0  0  0  0  0  0  0  0
   11.2466    4.8256   23.2478 N   0  0  0  0  0  0  0  0  0  0  0  0
   10.5816    3.7688   24.0093 C   0  0  0  0  0  0  0  0  0  0  0  0
   10.8352    2.3867   23.4122 C   0  0  0  0  0  0  0  0  0  0  0  0
   13.4500   -1.8883   25.3962 C   0  0  0  0  0  0  0  0  0  0  0  0
   12.7155   -3.0158   25.7646 C   0  0  0  0  0  0  0  0  0  0  0  0
    5.8670   -1.4953   21.9850 C   0  0  0  0  0  0  0  0  0  0  0  0
    5.7932   -0.2538   21.3388 C   0  0  0  0  0  0  0  0  0  0  0  0
  1  2  1  0
  2  3  1  0
  3  4  2  0
  4  5  1  0
  5  6  2  0
  6  7  1  0
  7  8  1  0
  8  9  1  0
  9 10  1  0
 10 11  2  0
 12 10  1  6
 12 13  1  0
 13 14  1  0
 14 15  1  0
 14 16  1  0
 16 17  1  0
 17 18  1  1
 18 19  2  0
 19 20  1  0
 20 21  2  0
 21 22  1  0
 22 23  1  0
 23 24  1  0
 24 25  1  0
 25 26  1  0
 26 27  1  0
 27 28  1  0
 28 29  1  0
 21 30  1  0
 30 31  2  0
  6 32  1  0
 32 33  2  0
 33  3  1  0
 17 12  1  0
 31 18  1  0
 29 24  1  0
M  END
