
     RDKit          3D

 36 39  0  0  0  0  0  0  0  0999 V2000
    6.0572   -5.6762   21.3334 C   0  0  0  0  0  0  0  0  0  0  0  0
    4.9549   -5.0867   22.0749 N   0  0  0  0  0  0  0  0  0  0  0  0
    4.7154   -5.6696   23.3345 C   0  0  0  0  0  0  0  0  0  0  0  0
    5.4084   -5.1716   24.4226 C   0  0  0  0  0  0  0  0  0  0  0  0
    5.2009   -5.7620   25.6593 C   0  0  0  0  0  0  0  0  0  0  0  0
    5.9157   -5.2654   26.7789 N   0  0  0  0  0  0  0  0  0  0  0  0
    5.4685   -3.9168   27.1765 C   0  0  0  0  0  0  0  0  0  0  0  0
    6.1380   -3.5321   28.4980 C   0  0  0  0  0  0  0  0  0  0  0  0
    7.6628   -3.6411   28.4057 C   0  0  0  0  0  0  0  0  0  0  0  0
    8.1048   -5.0174   27.8670 C   0  0  2  0  0  0  0  0  0  0  0  0
    7.6972   -6.0151   28.8292 O   0  0  0  0  0  0  0  0  0  0  0  0
    9.6410   -5.1328   27.7118 C   0  0  0  0  0  0  0  0  0  0  0  0
   10.2207   -4.1594   26.7797 N   0  0  0  0  0  0  0  0  0  0  0  0
   11.4553   -4.6738   26.1782 C   0  0  0  0  0  0  0  0  0  0  0  0
   12.1521   -3.6209   25.3431 C   0  0  0  0  0  0  0  0  0  0  0  0
   13.4130   -3.1479   25.7222 C   0  0  0  0  0  0  0  0  0  0  0  0
   14.0720   -2.1832   24.9559 C   0  0  0  0  0  0  0  0  0  0  0  0
   13.4869   -1.6801   23.7904 C   0  0  0  0  0  0  0  0  0  0  0  0
   14.0449   -0.7061   23.0024 O   0  0  0  0  0  0  0  0  0  0  0  0
   14.0875    0.6363   23.4909 C   0  0  0  0  0  0  0  0  0  0  0  0
   12.7092    1.3069   23.3414 C   0  0  0  0  0  0  0  0  0  0  0  0
   12.6975    2.6840   22.8299 N   0  0  0  0  0  0  0  0  0  0  0  0
   11.3597    3.2044   22.5337 C   0  0  0  0  0  0  0  0  0  0  0  0
   11.0447    4.5298   23.2272 C   0  0  0  0  0  0  0  0  0  0  0  0
   12.1108    5.5880   22.9141 C   0  0  0  0  0  0  0  0  0  0  0  0
   11.9551    6.7946   23.8395 C   0  0  0  0  0  0  0  0  0  0  0  0
   13.5320    5.0021   22.9812 C   0  0  0  0  0  0  0  0  0  0  0  0
   13.5621    3.5943   23.5816 C   0  0  0  0  0  0  0  0  0  0  0  0
   12.2212   -2.1511   23.3917 C   0  0  0  0  0  0  0  0  0  0  0  0
   11.7086   -1.6067   22.2392 O   0  0  0  0  0  0  0  0  0  0  0  0
   10.3672   -1.1408   22.2746 C   0  0  0  0  0  0  0  0  0  0  0  0
   11.5761   -3.1287   24.1590 C   0  0  0  0  0  0  0  0  0  0  0  0
    7.3809   -5.3241   26.5317 C   0  0  0  0  0  0  0  0  0  0  0  0
    4.3592   -6.7957   25.7996 N   0  0  0  0  0  0  0  0  0  0  0  0
    3.7447   -7.2198   24.6863 C   0  0  0  0  0  0  0  0  0  0  0  0
    3.8784   -6.7076   23.4565 N   0  0  0  0  0  0  0  0  0  0  0  0
  1  2  1  0
  2  3  1  0
  3  4  2  0
  4  5  1  0
  5  6  1  0
  6  7  1  0
  7  8  1  0
  8  9  1  0
  9 10  1  0
 10 11  1  1
 10 12  1  0
 12 13  1  0
 13 14  1  0
 14 15  1  0
 15 16  2  0
 16 17  1  0
 17 18  2  0
 18 19  1  0
 19 20  1  0
 20 21  1  0
 21 22  1  0
 22 23  1  0
 23 24  1  0
 24 25  1  0
 25 26  1  0
 25 27  1  0
 27 28  1  0
 18 29  1  0
 29 30  1  0
 30 31  1  0
 29 32  2  0
 10 33  1  0
  5 34  2  0
 34 35  1  0
 35 36  2  0
 36  3  1  0
 33  6  1  0
 32 15  1  0
 28 22  1  0
M  END
