
     RDKit          3D

 32 34  0  0  0  0  0  0  0  0999 V2000
    4.6405    0.5605   19.4912 C   0  0  0  0  0  0  0  0  0  0  0  0
    4.3387    1.6764   18.6099 N   0  0  0  0  0  0  0  0  0  0  0  0
    3.3542    2.5811   19.2155 C   0  0  0  0  0  0  0  0  0  0  0  0
    3.7723    3.0736   20.6227 C   0  0  2  0  0  0  0  0  0  0  0  0
    2.8602    4.2375   21.0472 C   0  0  0  0  0  0  0  0  0  0  0  0
    3.3264    4.8854   22.3497 C   0  0  0  0  0  0  0  0  0  0  0  0
    4.8255    5.1771   22.3311 C   0  0  2  0  0  0  0  0  0  0  0  0
    5.1107    6.3055   21.4037 N   0  0  0  0  0  0  0  0  0  0  0  0
    5.5906    3.8811   21.9105 C   0  0  2  0  0  0  0  0  0  0  0  0
    6.9835    4.2062   21.9222 O   0  0  0  0  0  0  0  0  0  0  0  0
    7.7328    3.6545   23.0271 C   0  0  2  0  0  0  0  0  0  0  0  0
    8.4536    4.8610   23.6848 C   0  0  2  0  0  0  0  0  0  0  0  0
    9.1827    5.6636   22.6757 N   0  0  0  0  0  0  0  0  0  0  0  0
    9.3925    4.3991   24.8019 C   0  0  0  0  0  0  0  0  0  0  0  0
   10.4468    3.3944   24.3161 C   0  0  2  0  0  0  0  0  0  0  0  0
   11.4434    4.0729   23.4621 N   0  0  0  0  0  0  0  0  0  0  0  0
    9.7634    2.1893   23.6183 C   0  0  2  0  0  0  0  0  0  0  0  0
   10.7934    1.4043   22.9764 O   0  0  0  0  0  0  0  0  0  0  0  0
   11.5512    0.6053   23.8921 C   0  0  2  0  0  0  0  0  0  0  0  0
   12.9500    0.6926   23.5980 O   0  0  0  0  0  0  0  0  0  0  0  0
   13.7386   -0.1045   24.4876 C   0  0  0  0  0  0  0  0  0  0  0  0
   13.3866   -1.6083   24.4251 C   0  0  2  0  0  0  0  0  0  0  0  0
   14.2424   -2.3650   25.4398 C   0  0  0  0  0  0  0  0  0  0  0  0
   13.7505   -2.1293   23.1368 O   0  0  0  0  0  0  0  0  0  0  0  0
   11.8503   -1.7914   24.6483 C   0  0  2  0  0  0  0  0  0  0  0  0
   11.3671   -3.1745   24.4206 N   0  0  0  0  0  0  0  0  0  0  0  0
   10.4418   -3.6587   25.4280 C   0  0  0  0  0  0  0  0  0  0  0  0
   11.0838   -0.8494   23.6839 C   0  0  2  0  0  0  0  0  0  0  0  0
   11.3387   -1.2235   22.3048 O   0  0  0  0  0  0  0  0  0  0  0  0
    8.7149    2.5643   22.5515 C   0  0  1  0  0  0  0  0  0  0  0  0
    7.9534    1.3615   22.2862 O   0  0  0  0  0  0  0  0  0  0  0  0
    5.1489    3.4930   20.6074 O   0  0  0  0  0  0  0  0  0  0  0  0
  1  2  1  0
  2  3  1  0
  4  3  1  6
  4  5  1  0
  5  6  1  0
  6  7  1  0
  7  8  1  6
  7  9  1  0
  9 10  1  6
 11 10  1  6
 11 12  1  0
 12 13  1  6
 12 14  1  0
 14 15  1  0
 15 16  1  6
 15 17  1  0
 17 18  1  6
 19 18  1  6
 19 20  1  0
 20 21  1  0
 21 22  1  0
 22 23  1  1
 22 24  1  0
 22 25  1  0
 25 26  1  6
 26 27  1  0
 25 28  1  0
 28 29  1  6
 17 30  1  0
 30 31  1  1
  9 32  1  0
 32  4  1  0
 30 11  1  0
 28 19  1  0
M  END
