
     RDKit          3D

 33 36  0  0  0  0  0  0  0  0999 V2000
   12.3081    2.7229   23.3960 C   0  0  0  0  0  0  0  0  0  0  0  0
   13.3538    1.6260   23.4245 C   0  0  0  0  0  0  0  0  0  0  0  0
   13.7033    1.3752   24.7852 O   0  0  0  0  0  0  0  0  0  0  0  0
   12.8818    0.3649   25.3933 C   0  0  0  0  0  0  0  0  0  0  0  0
   13.6762   -0.9453   25.4738 C   0  0  2  0  0  0  0  0  0  0  0  0
   14.5204   -1.0709   24.3135 O   0  0  0  0  0  0  0  0  0  0  0  0
   12.7840   -2.1944   25.6546 C   0  0  0  0  0  0  0  0  0  0  0  0
   11.4706   -2.1995   24.9722 N   0  0  0  0  0  0  0  0  0  0  0  0
   10.6295   -3.2948   25.5185 C   0  0  0  0  0  0  0  0  0  0  0  0
   11.4029   -4.5661   25.9573 C   0  0  0  0  0  0  0  0  0  0  0  0
   10.5758   -5.5343   26.7062 N   0  0  0  0  0  0  0  0  0  0  0  0
    9.5861   -6.1963   25.8261 C   0  0  0  0  0  0  0  0  0  0  0  0
    8.1861   -5.5673   25.8999 C   0  0  0  0  0  0  0  0  0  0  0  0
    7.6181   -5.5990   27.2169 O   0  0  0  0  0  0  0  0  0  0  0  0
    8.6086   -5.6479   28.2528 C   0  0  0  0  0  0  0  0  0  0  0  0
    9.9004   -4.9108   27.8662 C   0  0  0  0  0  0  0  0  0  0  0  0
   11.5428   -2.1965   23.4925 C   0  0  0  0  0  0  0  0  0  0  0  0
   10.1894   -2.0379   22.8076 C   0  0  0  0  0  0  0  0  0  0  0  0
    9.3589   -3.0342   22.7401 N   0  0  0  0  0  0  0  0  0  0  0  0
    8.1926   -2.7559   22.1006 C   0  0  0  0  0  0  0  0  0  0  0  0
    6.9856   -3.9466   21.9228 S   0  0  0  0  0  0  0  0  0  0  0  0
    5.9630   -2.8687   21.0776 C   0  0  0  0  0  0  0  0  0  0  0  0
    6.5237   -1.6136   20.9212 C   0  0  0  0  0  0  0  0  0  0  0  0
    5.7873   -0.5633   20.2296 C   0  0  0  0  0  0  0  0  0  0  0  0
    4.9681    0.3181   20.9481 C   0  0  0  0  0  0  0  0  0  0  0  0
    4.2761    1.3352   20.2870 C   0  0  0  0  0  0  0  0  0  0  0  0
    4.3979    1.4778   18.9058 C   0  0  0  0  0  0  0  0  0  0  0  0
    5.2097    0.6041   18.1840 C   0  0  0  0  0  0  0  0  0  0  0  0
    5.9036   -0.4132   18.8432 C   0  0  0  0  0  0  0  0  0  0  0  0
    7.8236   -1.5540   21.5267 C   0  0  0  0  0  0  0  0  0  0  0  0
    8.7792   -0.4647   21.6053 C   0  0  0  0  0  0  0  0  0  0  0  0
    8.6178    0.6459   21.1114 O   0  0  0  0  0  0  0  0  0  0  0  0
    9.9259   -0.7873   22.2929 N   0  0  0  0  0  0  0  0  0  0  0  0
  1  2  1  0
  2  3  1  0
  3  4  1  0
  4  5  1  0
  5  6  1  6
  5  7  1  0
  7  8  1  0
  8  9  1  0
  9 10  1  0
 10 11  1  0
 11 12  1  0
 12 13  1  0
 13 14  1  0
 14 15  1  0
 15 16  1  0
  8 17  1  0
 17 18  1  0
 18 19  2  0
 19 20  1  0
 20 21  1  0
 21 22  1  0
 22 23  2  0
 23 24  1  0
 24 25  2  0
 25 26  1  0
 26 27  2  0
 27 28  1  0
 28 29  2  0
 23 30  1  0
 30 31  1  0
 31 32  2  0
 31 33  1  0
 16 11  1  0
 33 18  1  0
 30 20  2  0
 29 24  1  0
M  END
