
     RDKit          3D

 32 33  0  0  0  0  0  0  0  0999 V2000
   14.1468   -2.6036   24.0949 C   0  0  0  0  0  0  0  0  0  0  0  0
   14.3066   -2.1588   25.4834 N   0  0  0  0  0  0  0  0  0  0  0  0
   14.4859   -3.3267   26.3516 C   0  0  0  0  0  0  0  0  0  0  0  0
   13.1485   -1.3427   25.8862 C   0  0  0  0  0  0  0  0  0  0  0  0
   13.1242    0.0331   25.2020 C   0  0  0  0  0  0  0  0  0  0  0  0
   11.7011    0.3785   24.7269 C   0  0  0  0  0  0  0  0  0  0  0  0
   11.5171    0.7982   23.3221 N   0  0  0  0  0  0  0  0  0  0  0  0
   10.2257    0.3841   22.7371 C   0  0  0  0  0  0  0  0  0  0  0  0
   10.2853   -1.0655   22.2630 C   0  0  0  0  0  0  0  0  0  0  0  0
   11.2247   -1.7977   22.5869 O   0  0  0  0  0  0  0  0  0  0  0  0
    9.1550   -1.5198   21.3336 C   0  0  0  0  0  0  0  0  0  0  0  0
    7.9208   -1.7853   22.1152 N   0  0  0  0  0  0  0  0  0  0  0  0
    6.8383   -0.8498   21.7401 C   0  0  0  0  0  0  0  0  0  0  0  0
    6.5690   -0.8520   20.2256 C   0  0  0  0  0  0  0  0  0  0  0  0
    6.8683    0.5062   19.5702 C   0  0  0  0  0  0  0  0  0  0  0  0
    5.7122    1.4105   19.4700 N   0  0  0  0  0  0  0  0  0  0  0  0
    4.8411    1.0672   18.3423 C   0  0  0  0  0  0  0  0  0  0  0  0
    4.9386    1.3777   20.7152 C   0  0  0  0  0  0  0  0  0  0  0  0
    7.5105   -3.2077   22.0359 C   0  0  1  0  0  0  0  0  0  0  0  0
    7.8136   -3.9958   23.3320 C   0  0  0  0  0  0  0  0  0  0  0  0
    7.2188   -5.3844   23.1443 C   0  0  0  0  0  0  0  0  0  0  0  0
    5.7036   -5.1247   22.2492 S   0  0  0  0  0  0  0  0  0  0  0  0
    5.7537   -5.9127   21.0344 O   0  0  0  0  0  0  0  0  0  0  0  0
    4.5913   -5.2018   23.1723 O   0  0  0  0  0  0  0  0  0  0  0  0
    5.9977   -3.4172   21.8339 C   0  0  0  0  0  0  0  0  0  0  0  0
   11.8444    2.1990   23.0065 C   0  0  1  0  0  0  0  0  0  0  0  0
   10.9721    3.2980   23.6333 C   0  0  0  0  0  0  0  0  0  0  0  0
   11.5778    4.6183   23.1663 C   0  0  0  0  0  0  0  0  0  0  0  0
   13.3441    4.3487   23.1695 S   0  0  0  0  0  0  0  0  0  0  0  0
   13.9050    4.9329   24.3692 O   0  0  0  0  0  0  0  0  0  0  0  0
   13.8555    4.6502   21.8485 O   0  0  0  0  0  0  0  0  0  0  0  0
   13.2899    2.5743   23.3684 C   0  0  0  0  0  0  0  0  0  0  0  0
  1  2  1  0
  2  3  1  0
  2  4  1  0
  4  5  1  0
  5  6  1  0
  6  7  1  0
  7  8  1  0
  8  9  1  0
  9 10  2  0
  9 11  1  0
 11 12  1  0
 12 13  1  0
 13 14  1  0
 14 15  1  0
 15 16  1  0
 16 17  1  0
 16 18  1  0
 19 12  1  1
 19 20  1  0
 20 21  1  0
 21 22  1  0
 22 23  2  0
 22 24  2  0
 22 25  1  0
 26  7  1  1
 26 27  1  0
 27 28  1  0
 28 29  1  0
 29 30  2  0
 29 31  2  0
 29 32  1  0
 25 19  1  0
 32 26  1  0
M  END
