
     RDKit          3D

 34 35  0  0  0  0  0  0  0  0999 V2000
   14.2639   -3.7490   26.2896 N   0  0  0  0  0  0  0  0  0  0  0  0
   14.9596   -2.5145   25.9386 C   0  0  0  0  0  0  0  0  0  0  0  0
   13.9694   -1.3561   25.8457 C   0  0  0  0  0  0  0  0  0  0  0  0
   13.4965   -1.1598   24.4035 C   0  0  0  0  0  0  0  0  0  0  0  0
   12.5634   -0.0419   24.2466 N   0  0  0  0  0  0  0  0  0  0  0  0
   11.1493   -0.2512   24.5473 C   0  0  0  0  0  0  0  0  0  0  0  0
   10.2684   -0.2214   23.2973 C   0  0  0  0  0  0  0  0  0  0  0  0
    9.7417   -1.6027   22.8983 C   0  0  0  0  0  0  0  0  0  0  0  0
    8.7942   -2.2613   23.9075 C   0  0  0  0  0  0  0  0  0  0  0  0
    8.3593   -3.6006   23.5128 N   0  0  0  0  0  0  0  0  0  0  0  0
    8.9549   -4.7525   24.1880 C   0  0  0  0  0  0  0  0  0  0  0  0
    8.3899   -5.0051   25.5896 C   0  0  0  0  0  0  0  0  0  0  0  0
    9.1227   -6.1223   26.3316 C   0  0  0  0  0  0  0  0  0  0  0  0
   10.5532   -5.8263   26.4036 N   0  0  0  0  0  0  0  0  0  0  0  0
    7.3458   -3.8116   22.5895 C   0  0  0  0  0  0  0  0  0  0  0  0
    6.9525   -4.9201   22.2429 O   0  0  0  0  0  0  0  0  0  0  0  0
    6.8252   -2.6506   22.1137 O   0  0  0  0  0  0  0  0  0  0  0  0
    5.9220   -2.8265   21.0173 C   0  0  0  0  0  0  0  0  0  0  0  0
    5.6349   -1.4854   20.3843 C   0  0  0  0  0  0  0  0  0  0  0  0
    5.5273   -1.3714   18.9897 C   0  0  0  0  0  0  0  0  0  0  0  0
    5.2953   -0.1289   18.3959 C   0  0  0  0  0  0  0  0  0  0  0  0
    5.1753    1.0121   19.1880 C   0  0  0  0  0  0  0  0  0  0  0  0
    5.2899    0.9137   20.5726 C   0  0  0  0  0  0  0  0  0  0  0  0
    5.5246   -0.3266   21.1675 C   0  0  0  0  0  0  0  0  0  0  0  0
   12.9995    1.2342   23.9162 C   0  0  0  0  0  0  0  0  0  0  0  0
   14.1613    1.5166   23.6465 O   0  0  0  0  0  0  0  0  0  0  0  0
   11.9887    2.1400   23.9242 O   0  0  0  0  0  0  0  0  0  0  0  0
   11.9385    2.9799   22.7680 C   0  0  0  0  0  0  0  0  0  0  0  0
   11.9365    4.4181   23.2247 C   0  0  0  0  0  0  0  0  0  0  0  0
   10.9083    4.9088   24.0408 C   0  0  0  0  0  0  0  0  0  0  0  0
   10.9197    6.2368   24.4731 C   0  0  0  0  0  0  0  0  0  0  0  0
   11.9582    7.0867   24.0958 C   0  0  0  0  0  0  0  0  0  0  0  0
   12.9893    6.6088   23.2897 C   0  0  0  0  0  0  0  0  0  0  0  0
   12.9811    5.2810   22.8598 C   0  0  0  0  0  0  0  0  0  0  0  0
  1  2  1  0
  2  3  1  0
  3  4  1  0
  4  5  1  0
  5  6  1  0
  6  7  1  0
  7  8  1  0
  8  9  1  0
  9 10  1  0
 10 11  1  0
 11 12  1  0
 12 13  1  0
 13 14  1  0
 10 15  1  0
 15 16  2  0
 15 17  1  0
 17 18  1  0
 18 19  1  0
 19 20  2  0
 20 21  1  0
 21 22  2  0
 22 23  1  0
 23 24  2  0
  5 25  1  0
 25 26  2  0
 25 27  1  0
 27 28  1  0
 28 29  1  0
 29 30  2  0
 30 31  1  0
 31 32  2  0
 32 33  1  0
 33 34  2  0
 24 19  1  0
 34 29  1  0
M  END
