
     RDKit          3D

 33 35  0  0  0  0  0  0  0  0999 V2000
    5.8372   -6.1230   21.8347 C   0  0  0  0  0  0  0  0  0  0  0  0
    6.2171   -4.8906   22.6356 C   0  0  0  0  0  0  0  0  0  0  0  0
    6.9792   -4.0257   21.7881 O   0  0  0  0  0  0  0  0  0  0  0  0
    7.5142   -2.9247   22.4046 C   0  0  0  0  0  0  0  0  0  0  0  0
    8.5321   -3.0574   23.3649 C   0  0  0  0  0  0  0  0  0  0  0  0
    9.0661   -1.9435   24.0310 C   0  0  0  0  0  0  0  0  0  0  0  0
   10.1510   -2.1146   25.0729 C   0  0  0  0  0  0  0  0  0  0  0  0
   11.4459   -2.5381   24.5136 N   0  0  0  0  0  0  0  0  0  0  0  0
   11.6908   -1.9428   23.1902 C   0  0  0  0  0  0  0  0  0  0  0  0
   11.9857   -0.4389   23.2271 C   0  0  0  0  0  0  0  0  0  0  0  0
   13.1384   -0.0982   24.1845 C   0  0  1  0  0  0  0  0  0  0  0  0
   14.3708   -0.5753   23.5975 O   0  0  0  0  0  0  0  0  0  0  0  0
   13.2806    1.4308   24.3767 C   0  0  0  0  0  0  0  0  0  0  0  0
   13.5013    2.0838   23.0667 N   0  0  0  0  0  0  0  0  0  0  0  0
   13.4879    3.7593   23.0132 S   0  0  0  0  0  0  0  0  0  0  0  0
   11.8306    4.1047   23.5610 C   0  0  0  0  0  0  0  0  0  0  0  0
   13.5865    4.1217   21.6187 O   0  0  0  0  0  0  0  0  0  0  0  0
   14.4172    4.2582   24.0008 O   0  0  0  0  0  0  0  0  0  0  0  0
   12.9449   -0.7866   25.5570 C   0  0  2  0  0  0  0  0  0  0  0  0
   14.1630   -0.6558   26.3052 O   0  0  0  0  0  0  0  0  0  0  0  0
   12.5964   -2.2756   25.3878 C   0  0  0  0  0  0  0  0  0  0  0  0
    8.5874   -0.6754   23.7050 C   0  0  0  0  0  0  0  0  0  0  0  0
    7.6078   -0.5313   22.7223 C   0  0  0  0  0  0  0  0  0  0  0  0
    7.0731   -1.6407   22.0505 C   0  0  0  0  0  0  0  0  0  0  0  0
    6.1387   -1.2688   21.1239 O   0  0  0  0  0  0  0  0  0  0  0  0
    6.5222   -0.7234   19.8609 C   0  0  0  0  0  0  0  0  0  0  0  0
    5.3640    0.0425   19.1925 C   0  0  0  0  0  0  0  0  0  0  0  0
    5.1473    1.3962   19.7402 N   0  0  0  0  0  0  0  0  0  0  0  0
    4.8617    1.3633   21.1906 C   0  0  0  0  0  0  0  0  0  0  0  0
    4.1078    2.6194   21.6562 C   0  0  0  0  0  0  0  0  0  0  0  0
    2.8132    2.7471   21.0520 O   0  0  0  0  0  0  0  0  0  0  0  0
    2.7276    2.1170   19.7679 C   0  0  0  0  0  0  0  0  0  0  0  0
    4.0681    2.1073   19.0163 C   0  0  0  0  0  0  0  0  0  0  0  0
  1  2  1  0
  2  3  1  0
  3  4  1  0
  4  5  2  0
  5  6  1  0
  6  7  1  0
  7  8  1  0
  8  9  1  0
  9 10  1  0
 10 11  1  0
 11 12  1  6
 11 13  1  0
 13 14  1  0
 14 15  1  0
 15 16  1  0
 15 17  2  0
 15 18  2  0
 11 19  1  0
 19 20  1  1
 19 21  1  0
  6 22  2  0
 22 23  1  0
 23 24  2  0
 24 25  1  0
 25 26  1  0
 26 27  1  0
 27 28  1  0
 28 29  1  0
 29 30  1  0
 30 31  1  0
 31 32  1  0
 32 33  1  0
 24  4  1  0
 33 28  1  0
 21  8  1  0
M  END
