
     RDKit          3D

 33 35  0  0  0  0  0  0  0  0999 V2000
    6.1490    0.6552   17.8151 C   0  0  0  0  0  0  0  0  0  0  0  0
    5.8261   -0.6991   18.1051 O   0  0  0  0  0  0  0  0  0  0  0  0
    5.9454   -1.0982   19.4077 C   0  0  0  0  0  0  0  0  0  0  0  0
    6.4332   -0.1192   20.2744 C   0  0  0  0  0  0  0  0  0  0  0  0
    6.5936   -0.3922   21.6324 C   0  0  0  0  0  0  0  0  0  0  0  0
    6.2723   -1.6543   22.1339 C   0  0  0  0  0  0  0  0  0  0  0  0
    5.8014   -2.6471   21.2745 C   0  0  0  0  0  0  0  0  0  0  0  0
    5.4262   -3.9106   21.6443 O   0  0  0  0  0  0  0  0  0  0  0  0
    5.8742   -4.4102   22.9123 C   0  0  0  0  0  0  0  0  0  0  0  0
    7.3455   -4.8435   22.8032 C   0  0  2  0  0  0  0  0  0  0  0  0
    7.4571   -5.8872   21.8272 O   0  0  0  0  0  0  0  0  0  0  0  0
    7.8562   -5.3348   24.1795 C   0  0  0  0  0  0  0  0  0  0  0  0
    9.2507   -5.0353   24.5659 N   0  0  0  0  0  0  0  0  0  0  0  0
    9.7959   -6.0303   25.4893 C   0  0  0  0  0  0  0  0  0  0  0  0
    9.3959   -3.6686   25.0979 C   0  0  0  0  0  0  0  0  0  0  0  0
   10.5471   -2.9002   24.4746 C   0  0  0  0  0  0  0  0  0  0  0  0
   10.3088   -1.9897   23.4402 C   0  0  0  0  0  0  0  0  0  0  0  0
   11.3667   -1.3065   22.8335 C   0  0  0  0  0  0  0  0  0  0  0  0
   12.6841   -1.5228   23.2482 C   0  0  0  0  0  0  0  0  0  0  0  0
   13.7861   -0.9036   22.7153 O   0  0  0  0  0  0  0  0  0  0  0  0
   14.3362    0.2476   23.3535 C   0  0  0  0  0  0  0  0  0  0  0  0
   13.2624    1.1271   24.0288 C   0  0  0  0  0  0  0  0  0  0  0  0
   12.6797    2.1875   23.1821 N   0  0  0  0  0  0  0  0  0  0  0  0
   13.6283    3.2851   22.9066 C   0  0  0  0  0  0  0  0  0  0  0  0
   12.9674    4.4130   22.0949 C   0  0  0  0  0  0  0  0  0  0  0  0
   11.8127    4.9323   22.7684 O   0  0  0  0  0  0  0  0  0  0  0  0
   10.8601    3.8802   22.9726 C   0  0  0  0  0  0  0  0  0  0  0  0
   11.4650    2.7454   23.8138 C   0  0  0  0  0  0  0  0  0  0  0  0
   12.9379   -2.4391   24.2893 C   0  0  0  0  0  0  0  0  0  0  0  0
   14.2554   -2.5928   24.6510 O   0  0  0  0  0  0  0  0  0  0  0  0
   14.5432   -2.7440   26.0332 C   0  0  0  0  0  0  0  0  0  0  0  0
   11.8712   -3.1252   24.8846 C   0  0  0  0  0  0  0  0  0  0  0  0
    5.6262   -2.3591   19.9151 C   0  0  0  0  0  0  0  0  0  0  0  0
  1  2  1  0
  2  3  1  0
  3  4  2  0
  4  5  1  0
  5  6  2  0
  6  7  1  0
  7  8  1  0
  8  9  1  0
  9 10  1  0
 10 11  1  6
 10 12  1  0
 12 13  1  0
 13 14  1  0
 13 15  1  0
 15 16  1  0
 16 17  2  0
 17 18  1  0
 18 19  2  0
 19 20  1  0
 20 21  1  0
 21 22  1  0
 22 23  1  0
 23 24  1  0
 24 25  1  0
 25 26  1  0
 26 27  1  0
 27 28  1  0
 19 29  1  0
 29 30  1  0
 30 31  1  0
 29 32  2  0
  7 33  2  0
 33  3  1  0
 32 16  1  0
 28 23  1  0
M  END
