
     RDKit          3D

 35 38  0  0  0  0  0  0  0  0999 V2000
   13.1698    6.8564   23.2089 C   0  0  0  0  0  0  0  0  0  0  0  0
   12.0963    6.1030   22.6518 O   0  0  0  0  0  0  0  0  0  0  0  0
   11.9363    4.8518   23.1861 C   0  0  0  0  0  0  0  0  0  0  0  0
   12.9129    3.8516   23.1237 C   0  0  0  0  0  0  0  0  0  0  0  0
   12.6724    2.5755   23.6681 C   0  0  0  0  0  0  0  0  0  0  0  0
   13.7286    1.4935   23.5856 C   0  0  0  0  0  0  0  0  0  0  0  0
   13.1924    0.1479   23.7990 N   0  0  0  0  0  0  0  0  0  0  0  0
   13.4979   -0.7884   22.7176 C   0  0  0  0  0  0  0  0  0  0  0  0
   13.2865   -2.1736   23.3361 C   0  0  0  0  0  0  0  0  0  0  0  0
   13.2972   -1.9546   24.8589 C   0  0  2  0  0  0  0  0  0  0  0  0
   14.2623   -2.7985   25.4983 O   0  0  0  0  0  0  0  0  0  0  0  0
   11.8965   -2.1465   25.5135 C   0  0  0  0  0  0  0  0  0  0  0  0
   10.9612   -3.0927   24.8598 N   0  0  0  0  0  0  0  0  0  0  0  0
   10.5302   -4.1765   25.7698 C   0  0  0  0  0  0  0  0  0  0  0  0
    9.4573   -5.1090   25.1477 C   0  0  0  0  0  0  0  0  0  0  0  0
    8.2907   -4.3385   24.6674 N   0  0  0  0  0  0  0  0  0  0  0  0
    7.1485   -5.0423   24.2486 C   0  0  0  0  0  0  0  0  0  0  0  0
    6.1613   -5.3920   25.1877 C   0  0  0  0  0  0  0  0  0  0  0  0
    4.9999   -6.0795   24.8215 C   0  0  0  0  0  0  0  0  0  0  0  0
    4.8046   -6.4552   23.4998 C   0  0  0  0  0  0  0  0  0  0  0  0
    5.7765   -6.1542   22.5513 C   0  0  0  0  0  0  0  0  0  0  0  0
    6.9354   -5.4621   22.9253 C   0  0  0  0  0  0  0  0  0  0  0  0
    8.7005   -3.2596   23.7365 C   0  0  0  0  0  0  0  0  0  0  0  0
    9.7616   -2.3530   24.3986 C   0  0  0  0  0  0  0  0  0  0  0  0
   13.7421   -0.4844   25.0008 C   0  0  0  0  0  0  0  0  0  0  0  0
   11.4314    2.3092   24.2652 C   0  0  0  0  0  0  0  0  0  0  0  0
   10.4481    3.2971   24.3153 C   0  0  0  0  0  0  0  0  0  0  0  0
   10.6949    4.5548   23.7613 C   0  0  0  0  0  0  0  0  0  0  0  0
    9.7426    5.5348   23.8618 O   0  0  0  0  0  0  0  0  0  0  0  0
    8.4742    5.1027   23.3467 C   0  0  0  0  0  0  0  0  0  0  0  0
    7.6860    6.3489   22.9532 C   0  0  0  0  0  0  0  0  0  0  0  0
    7.4988    6.4933   21.4405 C   0  0  0  0  0  0  0  0  0  0  0  0
    6.1057    6.6878   21.0088 N   0  0  0  0  0  0  0  0  0  0  0  0
    5.2098    5.6560   21.5404 C   0  0  0  0  0  0  0  0  0  0  0  0
    5.6295    8.0127   21.4213 C   0  0  0  0  0  0  0  0  0  0  0  0
  1  2  1  0
  2  3  1  0
  3  4  2  0
  4  5  1  0
  5  6  1  0
  6  7  1  0
  7  8  1  0
  8  9  1  0
  9 10  1  0
 10 11  1  1
 10 12  1  0
 12 13  1  0
 13 14  1  0
 14 15  1  0
 15 16  1  0
 16 17  1  0
 17 18  2  0
 18 19  1  0
 19 20  2  0
 20 21  1  0
 21 22  2  0
 16 23  1  0
 23 24  1  0
 10 25  1  0
  5 26  2  0
 26 27  1  0
 27 28  2  0
 28 29  1  0
 29 30  1  0
 30 31  1  0
 31 32  1  0
 32 33  1  0
 33 34  1  0
 33 35  1  0
 28  3  1  0
 25  7  1  0
 24 13  1  0
 22 17  1  0
M  END
