
     RDKit          3D

 33 37  0  0  0  0  0  0  0  0999 V2000
    4.3047    9.2066   20.6031 C   0  0  0  0  0  0  0  0  0  0  0  0
    4.4377    8.0687   21.6116 C   0  0  0  0  0  0  0  0  0  0  0  0
    5.4137    7.0275   21.2921 N   0  0  0  0  0  0  0  0  0  0  0  0
    5.3701    5.8700   22.1974 C   0  0  0  0  0  0  0  0  0  0  0  0
    6.6106    4.9620   22.0421 C   0  0  0  0  0  0  0  0  0  0  0  0
    7.8948    5.6301   22.3434 N   0  0  0  0  0  0  0  0  0  0  0  0
    8.3793    5.2869   23.6899 C   0  0  0  0  0  0  0  0  0  0  0  0
    9.4548    4.2208   23.6947 C   0  0  0  0  0  0  0  0  0  0  0  0
   10.6699    4.4258   23.0335 C   0  0  0  0  0  0  0  0  0  0  0  0
   11.6685    3.4460   23.0593 C   0  0  0  0  0  0  0  0  0  0  0  0
   11.4949    2.2434   23.7654 C   0  0  0  0  0  0  0  0  0  0  0  0
   12.5636    1.1620   23.7621 C   0  0  2  0  0  0  0  0  0  0  0  0
   12.0778   -0.2767   23.4148 C   0  0  0  0  0  0  0  0  0  0  0  0
   12.4814   -1.0728   24.6381 C   0  0  2  0  0  0  0  0  0  0  0  0
   13.7268   -0.3426   25.0679 C   0  0  1  0  0  0  0  0  0  0  0  0
   13.2952    1.0368   25.0647 N   0  0  0  0  0  0  0  0  0  0  0  0
   14.0727   -0.7895   26.3889 N   0  0  0  0  0  0  0  0  0  0  0  0
   14.4507   -2.1941   26.3030 C   0  0  0  0  0  0  0  0  0  0  0  0
   13.3096   -2.9786   25.8413 N   0  0  0  0  0  0  0  0  0  0  0  0
   12.8553   -2.5398   24.5253 C   0  0  1  0  0  0  0  0  0  0  0  0
   11.6890   -3.3313   24.1886 N   0  0  0  0  0  0  0  0  0  0  0  0
   10.7039   -3.4145   25.2797 C   0  0  2  0  0  0  0  0  0  0  0  0
   10.6447   -4.8316   25.8636 C   0  0  0  0  0  0  0  0  0  0  0  0
    9.3208   -3.0154   24.7768 C   0  0  0  0  0  0  0  0  0  0  0  0
    8.7247   -1.8278   25.2309 C   0  0  0  0  0  0  0  0  0  0  0  0
    7.4545   -1.4541   24.7873 C   0  0  0  0  0  0  0  0  0  0  0  0
    6.7633   -2.2612   23.8856 C   0  0  0  0  0  0  0  0  0  0  0  0
    7.3397   -3.4441   23.4278 C   0  0  0  0  0  0  0  0  0  0  0  0
    8.6081   -3.8205   23.8722 C   0  0  0  0  0  0  0  0  0  0  0  0
   10.2566    2.0333   24.3934 C   0  0  0  0  0  0  0  0  0  0  0  0
    9.2578    3.0120   24.3718 C   0  0  0  0  0  0  0  0  0  0  0  0
    7.7930    7.0961   22.1614 C   0  0  0  0  0  0  0  0  0  0  0  0
    6.7849    7.5150   21.0664 C   0  0  0  0  0  0  0  0  0  0  0  0
  1  2  1  0
  2  3  1  0
  3  4  1  0
  4  5  1  0
  5  6  1  0
  6  7  1  0
  7  8  1  0
  8  9  2  0
  9 10  1  0
 10 11  2  0
 12 11  1  1
 12 13  1  0
 14 13  1  6
 14 15  1  0
 15 16  1  1
 15 17  1  0
 17 18  1  0
 18 19  1  0
 19 20  1  0
 20 21  1  1
 21 22  1  0
 22 23  1  6
 22 24  1  0
 24 25  2  0
 25 26  1  0
 26 27  2  0
 27 28  1  0
 28 29  2  0
 11 30  1  0
 30 31  2  0
  6 32  1  0
 32 33  1  0
 33  3  1  0
 31  8  1  0
 16 12  1  0
 29 24  1  0
 20 14  1  0
M  END
