
     RDKit          3D

 33 37  0  0  0  0  0  0  0  0999 V2000
    9.2369    7.0622   23.4776 C   0  0  0  0  0  0  0  0  0  0  0  0
   10.6305    6.6221   23.9146 C   0  0  0  0  0  0  0  0  0  0  0  0
   11.2640    5.6809   22.9808 N   0  0  0  0  0  0  0  0  0  0  0  0
   10.7724    4.3097   23.2292 C   0  0  0  0  0  0  0  0  0  0  0  0
   11.4587    3.2551   22.3295 C   0  0  0  0  0  0  0  0  0  0  0  0
   12.9358    3.2519   22.3965 N   0  0  0  0  0  0  0  0  0  0  0  0
   13.4502    2.7200   23.6693 C   0  0  0  0  0  0  0  0  0  0  0  0
   13.0107    1.2988   23.9541 C   0  0  0  0  0  0  0  0  0  0  0  0
   11.8716    1.0463   24.7311 C   0  0  0  0  0  0  0  0  0  0  0  0
   11.4549   -0.2639   24.9809 C   0  0  0  0  0  0  0  0  0  0  0  0
   12.1717   -1.3550   24.4685 C   0  0  0  0  0  0  0  0  0  0  0  0
   11.7241   -2.7847   24.6892 C   0  0  2  0  0  0  0  0  0  0  0  0
   10.3020   -3.0380   24.1766 C   0  0  0  0  0  0  0  0  0  0  0  0
    9.5321   -3.5025   25.4160 C   0  0  2  0  0  0  0  0  0  0  0  0
   10.6166   -4.0840   26.3020 C   0  0  2  0  0  0  0  0  0  0  0  0
   11.7307   -3.1745   26.1136 N   0  0  0  0  0  0  0  0  0  0  0  0
   11.0688   -5.3828   25.8561 N   0  0  0  0  0  0  0  0  0  0  0  0
    9.9599   -6.3081   25.7977 C   0  0  0  0  0  0  0  0  0  0  0  0
    8.9696   -5.8406   24.8544 N   0  0  0  0  0  0  0  0  0  0  0  0
    8.4318   -4.5212   25.1202 C   0  0  1  0  0  0  0  0  0  0  0  0
    7.4885   -4.6210   26.2234 N   0  0  0  0  0  0  0  0  0  0  0  0
    6.1537   -4.0815   25.9294 C   0  0  2  0  0  0  0  0  0  0  0  0
    5.5271   -3.4558   27.1812 C   0  0  0  0  0  0  0  0  0  0  0  0
    5.2565   -5.1849   25.3823 C   0  0  0  0  0  0  0  0  0  0  0  0
    4.5638   -6.0570   26.2389 C   0  0  0  0  0  0  0  0  0  0  0  0
    3.7523   -7.0689   25.7226 C   0  0  0  0  0  0  0  0  0  0  0  0
    3.6223   -7.2238   24.3444 C   0  0  0  0  0  0  0  0  0  0  0  0
    4.3033   -6.3684   23.4813 C   0  0  0  0  0  0  0  0  0  0  0  0
    5.1162   -5.3558   23.9959 C   0  0  0  0  0  0  0  0  0  0  0  0
   13.3087   -1.0983   23.6858 C   0  0  0  0  0  0  0  0  0  0  0  0
   13.7243    0.2120   23.4315 C   0  0  0  0  0  0  0  0  0  0  0  0
   13.4075    4.6331   22.1679 C   0  0  0  0  0  0  0  0  0  0  0  0
   12.7374    5.7107   23.0581 C   0  0  0  0  0  0  0  0  0  0  0  0
  1  2  1  0
  2  3  1  0
  3  4  1  0
  4  5  1  0
  5  6  1  0
  6  7  1  0
  7  8  1  0
  8  9  2  0
  9 10  1  0
 10 11  2  0
 12 11  1  1
 12 13  1  0
 14 13  1  6
 14 15  1  0
 15 16  1  6
 15 17  1  0
 17 18  1  0
 18 19  1  0
 19 20  1  0
 20 21  1  1
 21 22  1  0
 22 23  1  1
 22 24  1  0
 24 25  2  0
 25 26  1  0
 26 27  2  0
 27 28  1  0
 28 29  2  0
 11 30  1  0
 30 31  2  0
  6 32  1  0
 32 33  1  0
 33  3  1  0
 31  8  1  0
 16 12  1  0
 29 24  1  0
 20 14  1  0
M  END
