
     RDKit          3D

 33 37  0  0  0  0  0  0  0  0999 V2000
    5.1613    0.3612   18.3887 C   0  0  0  0  0  0  0  0  0  0  0  0
    6.1635    0.6720   19.3540 O   0  0  0  0  0  0  0  0  0  0  0  0
    5.6640    1.2113   20.5199 C   0  0  0  0  0  0  0  0  0  0  0  0
    4.6985    2.2290   20.4872 C   0  0  0  0  0  0  0  0  0  0  0  0
    4.1915    2.7527   21.6736 C   0  0  0  0  0  0  0  0  0  0  0  0
    4.6537    2.2678   22.8920 C   0  0  0  0  0  0  0  0  0  0  0  0
    5.6336    1.2691   22.9275 C   0  0  0  0  0  0  0  0  0  0  0  0
    6.1791    0.7277   21.7500 C   0  0  0  0  0  0  0  0  0  0  0  0
    7.1824   -0.2639   21.7747 N   0  0  0  0  0  0  0  0  0  0  0  0
    8.5454    0.2867   21.6007 C   0  0  0  0  0  0  0  0  0  0  0  0
    9.5676   -0.8555   21.3768 C   0  0  0  0  0  0  0  0  0  0  0  0
    9.5635   -1.9269   22.4101 N   0  0  0  0  0  0  0  0  0  0  0  0
   10.1427   -1.4404   23.6728 C   0  0  0  0  0  0  0  0  0  0  0  0
   11.5648   -1.9701   23.9522 C   0  0  1  0  0  0  0  0  0  0  0  0
   12.5679   -1.6127   22.8307 C   0  0  0  0  0  0  0  0  0  0  0  0
   13.8977   -1.2241   23.3811 N   0  0  0  0  0  0  0  0  0  0  0  0
   14.3224   -2.2676   24.3473 C   0  0  0  0  0  0  0  0  0  0  0  0
   13.4042   -2.2942   25.5833 C   0  0  0  0  0  0  0  0  0  0  0  0
   12.1431   -1.4542   25.2948 C   0  0  1  0  0  0  0  0  0  0  0  0
   12.5974    0.0100   25.1337 C   0  0  0  0  0  0  0  0  0  0  0  0
   13.7715    0.0680   24.1344 C   0  0  2  0  0  0  0  0  0  0  0  0
   13.6853    1.2963   23.1950 C   0  0  0  0  0  0  0  0  0  0  0  0
   13.3746    2.4831   24.0251 N   0  0  0  0  0  0  0  0  0  0  0  0
   13.5536    3.9963   23.3156 S   0  0  0  0  0  0  0  0  0  0  0  0
   13.8255    3.8209   21.9059 O   0  0  0  0  0  0  0  0  0  0  0  0
   14.4478    4.7468   24.1699 O   0  0  0  0  0  0  0  0  0  0  0  0
   11.9917    4.8412   23.4541 C   0  0  0  0  0  0  0  0  0  0  0  0
   10.6907    4.3826   23.3333 C   0  0  0  0  0  0  0  0  0  0  0  0
    9.7284    5.4174   23.5062 C   0  0  0  0  0  0  0  0  0  0  0  0
   10.3244    6.6349   23.7497 C   0  0  0  0  0  0  0  0  0  0  0  0
   12.0318    6.5224   23.7723 S   0  0  0  0  0  0  0  0  0  0  0  0
    8.1670   -2.4121   22.5395 C   0  0  0  0  0  0  0  0  0  0  0  0
    7.1052   -1.3157   22.8041 C   0  0  0  0  0  0  0  0  0  0  0  0
  1  2  1  0
  2  3  1  0
  3  4  2  0
  4  5  1  0
  5  6  2  0
  6  7  1  0
  7  8  2  0
  8  9  1  0
  9 10  1  0
 10 11  1  0
 11 12  1  0
 12 13  1  0
 14 13  1  6
 14 15  1  0
 15 16  1  0
 16 17  1  0
 17 18  1  0
 19 18  1  6
 19 20  1  0
 20 21  1  0
 21 22  1  6
 22 23  1  0
 23 24  1  0
 24 25  2  0
 24 26  2  0
 24 27  1  0
 27 28  2  0
 28 29  1  0
 29 30  2  0
 30 31  1  0
 12 32  1  0
 32 33  1  0
  8  3  1  0
 33  9  1  0
 19 14  1  0
 31 27  1  0
 21 16  1  0
M  END
