
     RDKit          3D

 34 35  0  0  0  0  0  0  0  0999 V2000
    6.3483    0.7702   17.4069 O   0  0  0  0  0  0  0  0  0  0  0  0
    5.0940    0.5448   18.0521 C   0  0  0  0  0  0  0  0  0  0  0  0
    5.3037    0.3151   19.5227 C   0  0  0  0  0  0  0  0  0  0  0  0
    5.7966   -0.9277   19.9556 C   0  0  0  0  0  0  0  0  0  0  0  0
    6.0612   -1.1727   21.3118 C   0  0  0  0  0  0  0  0  0  0  0  0
    6.6331   -2.5018   21.7540 C   0  0  0  0  0  0  0  0  0  0  0  0
    5.6824   -3.6799   21.4688 C   0  0  0  0  0  0  0  0  0  0  0  0
    6.2804   -4.9777   21.8372 N   0  0  0  0  0  0  0  0  0  0  0  0
    6.0589   -5.8366   20.6781 O   0  0  0  0  0  0  0  0  0  0  0  0
    5.6510   -5.5855   23.0205 C   0  0  0  0  0  0  0  0  0  0  0  0
    6.2949   -5.0801   24.3206 C   0  0  0  0  0  0  0  0  0  0  0  0
    7.8216   -5.2091   24.3346 C   0  0  0  0  0  0  0  0  0  0  0  0
    8.4123   -5.3298   25.7422 C   0  0  0  0  0  0  0  0  0  0  0  0
    9.8785   -5.7757   25.7245 C   0  0  0  0  0  0  0  0  0  0  0  0
   10.8495   -4.7149   26.2501 C   0  0  0  0  0  0  0  0  0  0  0  0
   10.9625   -3.5450   25.2704 C   0  0  0  0  0  0  0  0  0  0  0  0
   12.2218   -2.7097   25.5368 C   0  0  0  0  0  0  0  0  0  0  0  0
   13.1027   -2.7249   24.3582 N   0  0  0  0  0  0  0  0  0  0  0  0
   14.4541   -2.5782   24.8889 O   0  0  0  0  0  0  0  0  0  0  0  0
   12.9164   -1.5446   23.4948 C   0  0  0  0  0  0  0  0  0  0  0  0
   13.4639   -0.2170   24.0607 C   0  0  0  0  0  0  0  0  0  0  0  0
   12.6929    1.0631   23.8077 C   0  0  0  0  0  0  0  0  0  0  0  0
   11.3624    1.1295   24.2517 C   0  0  0  0  0  0  0  0  0  0  0  0
   10.5935    2.2750   24.0449 C   0  0  0  0  0  0  0  0  0  0  0  0
   11.1464    3.3714   23.3970 C   0  0  0  0  0  0  0  0  0  0  0  0
   10.3407    4.4672   23.2391 O   0  0  0  0  0  0  0  0  0  0  0  0
   12.4711    3.3505   22.9459 C   0  0  0  0  0  0  0  0  0  0  0  0
   13.0856    4.5003   22.1929 C   0  0  0  0  0  0  0  0  0  0  0  0
   13.8638    5.3068   23.0787 O   0  0  0  0  0  0  0  0  0  0  0  0
   13.2300    2.1837   23.1562 C   0  0  0  0  0  0  0  0  0  0  0  0
    5.8405   -0.1494   22.2444 C   0  0  0  0  0  0  0  0  0  0  0  0
    5.3633    1.0930   21.8291 C   0  0  0  0  0  0  0  0  0  0  0  0
    5.1013    1.3181   20.4812 C   0  0  0  0  0  0  0  0  0  0  0  0
    4.6407    2.5632   20.1435 O   0  0  0  0  0  0  0  0  0  0  0  0
  1  2  1  0
  2  3  1  0
  3  4  2  0
  4  5  1  0
  5  6  1  0
  6  7  1  0
  7  8  1  0
  8  9  1  0
  8 10  1  0
 10 11  1  0
 11 12  1  0
 12 13  1  0
 13 14  1  0
 14 15  1  0
 15 16  1  0
 16 17  1  0
 17 18  1  0
 18 19  1  0
 18 20  1  0
 20 21  1  0
 21 22  1  0
 22 23  2  0
 23 24  1  0
 24 25  2  0
 25 26  1  0
 25 27  1  0
 27 28  1  0
 28 29  1  0
 27 30  2  0
  5 31  2  0
 31 32  1  0
 32 33  2  0
 33 34  1  0
 33  3  1  0
 30 22  1  0
M  END
