##########                 Name:     ZINC000191583186
##########             Priority:     no
##########           ClusterNum:     37.000000
##########          Protonation:                 none
##########               SMILES:   CC1=CC=C(C[C@@H](CO)[NH2+][C@@H](C)CCC2=CC=CC=C2[N+](=O)[O-])C=C1
##########            Long Name:   NO_LONG_NAME
##########          FlexRecCode: 1
##########               Number:                 1372
##########   Ligand Source File: /nfs/db/export/3D/EG/ADRO/EGADRO.xbvb.db2.gz
##########                 Rank:                    1
##########               Setnum:                   96
##########             Matchnum:                    1
##########                Cloud:                    1
##########        Electrostatic:           -47.331333
##########                 Gist:             0.000000
##########        Van der Waals:           -35.141159
##########  Ligand Polar Desolv:            11.928079
########## Ligand Apolar Desolv:            -4.953140
##########      Internal Energy:             0.000000
##########      Receptor Energy:             0.000000
########## Receptor Desolvation:             0.000000
########## Receptor Hydrophobic:             0.000000
##########         Total Energy:           -75.497551
##########        Ligand Charge:             1.000000
##########            Arbitrary:    +999.9990
##########        Ligand Energy:             0.000000
########## viewdock state: D
@<TRIPOS>MOLECULE
 ZINC000191583186      none
   52    53     0     0     0



@<TRIPOS>ATOM
      1 C1        -15.2579    21.1839   -23.5457 C.3        1  LIG1  -0.1300
      2 C2        -15.4512    20.0791   -22.5392 C.ar       1  LIG1  -0.0700
      3 C3        -16.1319    18.9302   -22.8964 C.ar       1  LIG1  -0.1200
      4 C4        -16.3092    17.9166   -21.9733 C.ar       1  LIG1  -0.1200
      5 C5        -15.8055    18.0519   -20.6930 C.ar       1  LIG1  -0.1300
      6 C6        -15.9994    16.9473   -19.6865 C.3        1  LIG1  -0.0900
      7 C7        -17.3043    17.1775   -18.9214 C.3        1  LIG1   0.0300
      8 H1        -17.2581    18.1361   -18.4046 H          1  LIG1   0.1500
      9 C8        -18.4771    17.1840   -19.9039 C.3        1  LIG1   0.0500
     10 O1        -18.5377    15.9273   -20.5816 O.3        1  LIG1  -0.5700
     11 N1        -17.4932    16.1008   -17.9403 N.4        1  LIG1  -0.5000
     12 H2        -18.4657    16.0542   -17.6750 H          1  LIG1   0.4300
     13 H3        -17.2134    15.2212   -18.3480 H          1  LIG1   0.4300
     14 C9        -16.6739    16.3721   -16.7515 C.3        1  LIG1   0.0100
     15 H4        -15.7066    16.7688   -17.0598 H          1  LIG1   0.1600
     16 C10       -17.3857    17.3955   -15.8644 C.3        1  LIG1  -0.1800
     17 C11       -16.4667    15.0743   -15.9679 C.3        1  LIG1  -0.1300
     18 C12       -15.2522    15.2217   -15.0493 C.3        1  LIG1  -0.1100
     19 C13       -15.0480    13.9435   -14.2775 C.ar       1  LIG1  -0.0200
     20 C14       -15.9015    12.8741   -14.4733 C.ar       1  LIG1  -0.1100
     21 C15       -15.7142    11.7015   -13.7654 C.ar       1  LIG1  -0.0600
     22 C16       -14.6732    11.5984   -12.8621 C.ar       1  LIG1  -0.1100
     23 C17       -13.8188    12.6677   -12.6669 C.ar       1  LIG1  -0.0500
     24 C18       -14.0035    13.8385   -13.3778 C.ar       1  LIG1  -0.0500
     25 N2        -13.0889    14.9834   -13.1688 N.pl3      1  LIG1   0.0400
     26 O2        -13.2565    16.0179   -13.7895 O.2        1  LIG1  -0.1300
     27 O3        -12.1686    14.8910   -12.3763 O.2        1  LIG1  -0.2100
     28 C19       -15.1237    19.2002   -20.3363 C.ar       1  LIG1  -0.1100
     29 C20       -14.9430    20.2120   -21.2606 C.ar       1  LIG1  -0.1100
     30 H5        -15.7237    20.9011   -24.4897 H          1  LIG1   0.0800
     31 H6        -15.7179    22.0993   -23.1733 H          1  LIG1   0.0700
     32 H7        -14.1921    21.3506   -23.7020 H          1  LIG1   0.0700
     33 H8        -16.5256    18.8246   -23.8966 H          1  LIG1   0.1300
     34 H9        -16.8418    17.0194   -22.2521 H          1  LIG1   0.1300
     35 H10       -16.0455    15.9887   -20.2033 H          1  LIG1   0.1200
     36 H11       -15.1638    16.9428   -18.9865 H          1  LIG1   0.1000
     37 H12       -19.4067    17.3481   -19.3590 H          1  LIG1   0.0700
     38 H13       -18.3368    17.9829   -20.6320 H          1  LIG1   0.0900
     39 H14       -18.6616    15.1692   -19.9942 H          1  LIG1   0.4100
     40 H15       -16.7778    17.5967   -14.9823 H          1  LIG1   0.0800
     41 H16       -17.5333    18.3199   -16.4227 H          1  LIG1   0.1000
     42 H17       -18.3530    16.9988   -15.5563 H          1  LIG1   0.0800
     43 H18       -17.3528    14.8667   -15.3682 H          1  LIG1   0.1100
     44 H19       -16.2984    14.2526   -16.6640 H          1  LIG1   0.0900
     45 H20       -14.3659    15.4293   -15.6491 H          1  LIG1   0.1000
     46 H21       -15.4205    16.0434   -14.3533 H          1  LIG1   0.1000
     47 H22       -16.7150    12.9547   -15.1792 H          1  LIG1   0.1500
     48 H23       -16.3816    10.8661   -13.9178 H          1  LIG1   0.1500
     49 H24       -14.5272    10.6826   -12.3084 H          1  LIG1   0.1500
     50 H25       -13.0055    12.5873   -11.9608 H          1  LIG1   0.1600
     51 H26       -14.7298    19.3057   -19.3363 H          1  LIG1   0.1300
     52 H27       -14.4102    21.1092   -20.9819 H          1  LIG1   0.1300
@<TRIPOS>BOND
     1    1    2 1
     2    1   30 1
     3    1   31 1
     4    1   32 1
     5    2   29 ar
     6    2    3 ar
     7    3    4 ar
     8    3   33 1
     9    4    5 ar
    10    4   34 1
    11    5    6 1
    12    5   28 ar
    13    6    7 1
    14    6   35 1
    15    6   36 1
    16    7    8 1
    17    7    9 1
    18    7   11 1
    19    9   10 1
    20    9   37 1
    21    9   38 1
    22   10   39 1
    23   11   12 1
    24   11   13 1
    25   11   14 1
    26   14   15 1
    27   14   16 1
    28   14   17 1
    29   16   40 1
    30   16   41 1
    31   16   42 1
    32   17   18 1
    33   17   43 1
    34   17   44 1
    35   18   19 1
    36   18   45 1
    37   18   46 1
    38   19   24 ar
    39   19   20 ar
    40   20   21 ar
    41   20   47 1
    42   21   22 ar
    43   21   48 1
    44   22   23 ar
    45   22   49 1
    46   23   24 ar
    47   23   50 1
    48   24   25 1
    49   25   26 2
    50   25   27 2
    51   28   29 ar
    52   28   51 1
    53   29   52 1
