@<TRIPOS>MOLECULE
AAH
   14    14     1     0     0
SMALL
bcc


@<TRIPOS>ATOM
      1 C1         28.0550    7.2540    4.4480 ca        1 AAH      0.202300
      2 C2         27.8540    6.7390    3.1620 ca        1 AAH     -0.254400
      3 C3         27.2290    6.8480    5.5020 ca        1 AAH     -0.255000
      4 N4         29.0830    8.1780    4.6790 nh        1 AAH     -0.826300
      5 C5         26.8260    5.8160    2.9310 ca        1 AAH      0.191700
      6 C6         26.2010    5.9250    5.2720 ca        1 AAH      0.192000
      7 C7         26.0000    5.4090    3.9860 ca        1 AAH     -0.253200
      8 F8         26.6310    5.3180    1.6910 f         1 AAH     -0.136300
      9 F9         25.4050    5.5330    6.2880 f         1 AAH     -0.135800
     10 H10        28.4800    7.0470    2.3630 ha        1 AAH      0.152300
     11 H11        27.3810    7.2390    6.4770 ha        1 AAH      0.151800
     12 H12        29.6710    8.4670    3.9300 hn        1 AAH      0.403200
     13 H13        29.2270    8.5450    5.5930 hn        1 AAH      0.403100
     14 H14        25.2210    4.7100    3.8100 ha        1 AAH      0.164700
@<TRIPOS>BOND
     1    1    2 ar  
     2    1    3 ar  
     3    1    4 1   
     4    2    5 ar  
     5    2   10 1   
     6    3    6 ar  
     7    3   11 1   
     8    4   12 1   
     9    4   13 1   
    10    5    7 ar  
    11    5    8 1   
    12    6    7 ar  
    13    6    9 1   
    14    7   14 1   
@<TRIPOS>SUBSTRUCTURE
     1 AAH         1 TEMP              0 ****  ****    0 ROOT
