@<TRIPOS>MOLECULE
m1.pdb
44 47 1 0 0
SMALL
AMBER ff14SB


@<TRIPOS>ATOM
      1 C1         -1.5170    2.7400    1.7450 C.ar      1 UNL    0.5459
      2 N1         -2.8720    2.8420    1.5500 N.ar      1 UNL   -0.6500
      3 C2         -3.2930    1.6050    1.6790 C.ar      1 UNL    0.4364
      4 N2         -2.2210    0.8040    1.9160 N.ar      1 UNL   -0.1004
      5 C3         -2.2460   -0.6200    2.1410 C.3       1 UNL    0.0583
      6 C4         -1.9600   -1.3630    0.8520 C.3       1 UNL    0.0965
      7 C5         -3.2490   -1.6600    0.1150 C.3       1 UNL   -0.0964
      8 C6         -2.9830   -2.9490   -0.6330 C.3       1 UNL   -0.1004
      9 C7         -1.6760   -3.4840   -0.0840 C.3       1 UNL    0.1078
     10 N3         -1.3990   -2.6870    1.1060 N.4       1 UNL   -0.6934
     11 C8          0.0420   -2.6240    1.3380 C.3       1 UNL    0.2291
     12 C9          0.8590   -1.9710    0.2800 C.ar      1 UNL   -0.2614
     13 C10         1.0880   -0.6300    0.0790 C.ar      1 UNL   -0.0820
     14 C11         1.9390   -0.3490   -1.0260 C.ar      1 UNL   -0.0400
     15 C12         2.3570    0.9510   -1.5190 C.ar      1 UNL   -0.0490
     16 C13         1.8970    2.1120   -0.8930 C.ar      1 UNL   -0.1105
     17 C14         2.2850    3.3690   -1.3530 C.ar      1 UNL   -0.1245
     18 C15         3.1390    3.4740   -2.4470 C.ar      1 UNL   -0.1050
     19 C16         3.6040    2.3250   -3.0800 C.ar      1 UNL   -0.1245
     20 C17         3.2140    1.0690   -2.6170 C.ar      1 UNL   -0.1105
     21 C18         2.3430   -1.5310   -1.6000 C.ar      1 UNL   -0.1301
     22 S1          1.7290   -2.9190   -0.8480 S.2       1 UNL    0.0882
     23 N4         -1.0780    1.4970    1.9820 N.ar      1 UNL   -0.5438
     24 H1         -0.8572    3.5943    1.7101 H         1 UNL    0.0911
     25 H2         -4.3200    1.2785    1.6085 H         1 UNL    0.0821
     26 H32        -3.2301   -0.9079    2.5107 H         1 UNL    0.0762
     27 H33        -1.4914   -0.8812    2.8829 H         1 UNL    0.0762
     28 H4         -1.2880   -0.7816    0.2207 H         1 UNL    0.1437
     29 H52        -4.0718   -1.7879    0.8183 H         1 UNL    0.0912
     30 H53        -3.4750   -0.8572   -0.5868 H         1 UNL    0.0912
     31 H62        -2.8945   -2.7557   -1.7021 H         1 UNL    0.0917
     32 H63        -3.7864   -3.6618   -0.4471 H         1 UNL    0.0917
     33 H72        -0.8778   -3.3648   -0.8166 H         1 UNL    0.1057
     34 H73        -1.7843   -4.5347    0.1851 H         1 UNL    0.1057
     35 HN3        -1.8545   -3.1015    1.9065 H         1 UNL    0.4348
     36 H82         0.4036   -3.6460    1.4513 H         1 UNL    0.1027
     37 H83         0.2135   -2.0957    2.2759 H         1 UNL    0.1027
     38 H10         0.6604    0.1404    0.7036 H         1 UNL    0.1770
     39 H13         1.2340    2.0347   -0.0440 H         1 UNL    0.1315
     40 H14         1.9236    4.2601   -0.8614 H         1 UNL    0.1435
     41 H15         3.4409    4.4473   -2.8048 H         1 UNL    0.1470
     42 H16         4.2664    2.4062   -3.9291 H         1 UNL    0.1435
     43 H17         3.5771    0.1798   -3.1108 H         1 UNL    0.1315
     44 H18         2.9971   -1.5712   -2.4585 H         1 UNL    0.1990
@<TRIPOS>BOND
     1    1    2 ar
     2    1   23 ar
     3    2    3 ar
     4    3    4 ar
     5    4    5 1
     6    4   23 ar
     7    5    6 1
     8    6    7 1
     9    6   10 1
    10    7    8 1
    11    8    9 1
    12    9   10 1
    13   10   11 1
    14   11   12 1
    15   12   13 ar
    16   12   22 ar
    17   13   14 ar
    18   14   15 1
    19   14   21 ar
    20   15   16 ar
    21   15   20 ar
    22   16   17 ar
    23   17   18 ar
    24   18   19 ar
    25   19   20 ar
    26   21   22 ar
    27   24    1 1
    28   25    3 1
    29   26    5 1
    30   27    5 1
    31   28    6 1
    32   29    7 1
    33   30    7 1
    34   31    8 1
    35   32    8 1
    36   33    9 1
    37   34    9 1
    38   35   10 1
    39   36   11 1
    40   37   11 1
    41   38   13 1
    42   39   16 1
    43   40   17 1
    44   41   18 1
    45   42   19 1
    46   43   20 1
    47   44   21 1
@<TRIPOS>SUBSTRUCTURE
     1 UNL     1 RESIDUE           4 A     UNL     0 ROOT
