@<TRIPOS>MOLECULE
m2.pdb
45 48 1 0 0
SMALL
AMBER ff14SB


@<TRIPOS>ATOM
      1 C1          4.1100    0.2970   -2.7820 C.3       1 UNL   -0.0628
      2 C2          4.3480    1.4520   -1.8690 C.ar      1 UNL   -0.0553
      3 C3          5.3210    2.3730   -2.2720 C.ar      1 UNL   -0.1200
      4 C4          5.6190    3.4890   -1.4940 C.ar      1 UNL   -0.0920
      5 C5          4.9430    3.6980   -0.2970 C.ar      1 UNL   -0.1210
      6 C6          3.9730    2.7890    0.1160 C.ar      1 UNL   -0.0930
      7 C7          3.6680    1.6650   -0.6600 C.ar      1 UNL   -0.0432
      8 N1          2.6720    0.7950   -0.1660 N.ar      1 UNL    0.1523
      9 C8          2.2000   -0.3690   -0.7290 C.ar      1 UNL   -0.1386
     10 C9          1.2320   -0.8110    0.1450 C.ar      1 UNL   -0.1324
     11 C10         0.3740   -2.0090    0.0670 C.3       1 UNL    0.1225
     12 N2         -0.8430   -1.6910   -0.6740 N.4       1 UNL   -0.7460
     13 C11        -1.8530   -1.3000    0.3060 C.3       1 UNL    0.0645
     14 C12        -2.7290   -0.1860   -0.2810 C.3       1 UNL   -0.0461
     15 C13        -4.0470   -0.4810    0.3560 C.ar      1 UNL   -0.0923
     16 C14        -5.1460    0.3550    0.4260 C.ar      1 UNL   -0.0990
     17 C15        -6.2960   -0.1270    1.0510 C.ar      1 UNL   -0.0970
     18 C16        -6.3330   -1.4230    1.5830 C.ar      1 UNL   -0.1140
     19 C17        -5.2190   -2.2600    1.5010 C.ar      1 UNL   -0.0820
     20 C18        -4.0770   -1.7690    0.8940 C.ar      1 UNL   -0.1643
     21 C19        -2.7830   -2.4770    0.6520 C.3       1 UNL    0.1964
     22 O1         -2.3100   -3.0850    1.8460 O.3       1 UNL   -0.5908
     23 N3          1.1490    0.0520    1.2010 N.ar      1 UNL   -0.1140
     24 N4          2.0270    1.0260    1.0060 N.ar      1 UNL   -0.1088
     25 H3          5.8492    2.2161   -3.2009 H         1 UNL    0.1530
     26 H4          6.3731    4.1902   -1.8195 H         1 UNL    0.1550
     27 H5          5.1696    4.5621    0.3099 H         1 UNL    0.1560
     28 H6          3.4496    2.9531    1.0463 H         1 UNL    0.1560
     29 H8          2.5181   -0.8326   -1.6511 H         1 UNL    0.2150
     30 H102        0.9117   -2.8077   -0.4440 H         1 UNL    0.1177
     31 H103        0.1117   -2.3340    1.0738 H         1 UNL    0.1177
     32 H22        -0.6693   -0.9299   -1.3148 H         1 UNL    0.4513
     33 H23        -1.1566   -2.5043   -1.1841 H         1 UNL    0.4513
     34 H11        -1.3641   -0.9417    1.2119 H         1 UNL    0.1397
     35 H122       -2.7870   -0.2552   -1.3673 H         1 UNL    0.0817
     36 H123       -2.3633    0.7943    0.0245 H         1 UNL    0.0817
     37 H14        -5.1150    1.3509    0.0094 H         1 UNL    0.1530
     38 H15        -7.1680    0.5058    1.1258 H         1 UNL    0.1560
     39 H16        -7.2336   -1.7781    2.0618 H         1 UNL    0.1560
     40 H17        -5.2478   -3.2630    1.9003 H         1 UNL    0.1540
     41 H19        -2.8570   -3.1920   -0.1674 H         1 UNL    0.0857
     42 H12         4.7586    0.3827   -3.6538 H         1 UNL    0.0527
     43 H13         3.0684    0.2966   -3.1031 H         1 UNL    0.0527
     44 H18         4.3285   -0.6326   -2.2565 H         1 UNL    0.0527
     45 HO1        -2.8793   -3.8226    2.0773 H         1 UNL    0.4370
@<TRIPOS>BOND
     1    1    2 1
     2    2    3 ar
     3    2    7 ar
     4    3    4 ar
     5    4    5 ar
     6    5    6 ar
     7    6    7 ar
     8    7    8 1
     9    8    9 ar
    10    8   24 ar
    11    9   10 ar
    12   10   11 1
    13   10   23 ar
    14   11   12 1
    15   12   13 1
    16   13   14 1
    17   13   21 1
    18   14   15 1
    19   15   16 ar
    20   15   20 ar
    21   16   17 ar
    22   17   18 ar
    23   18   19 ar
    24   19   20 ar
    25   20   21 1
    26   21   22 1
    27   23   24 ar
    28   25    3 1
    29   26    4 1
    30   27    5 1
    31   28    6 1
    32   29    9 1
    33   30   11 1
    34   31   11 1
    35   32   12 1
    36   33   12 1
    37   34   13 1
    38   35   14 1
    39   36   14 1
    40   37   16 1
    41   38   17 1
    42   39   18 1
    43   40   19 1
    44   41   21 1
    45   42    1 1
    46   43    1 1
    47   44    1 1
    48   45   22 1
@<TRIPOS>SUBSTRUCTURE
     1 UNL     1 RESIDUE           4 A     UNL     0 ROOT
