@<TRIPOS>MOLECULE
m3.pdb
50 53 1 0 0
SMALL
AMBER ff14SB


@<TRIPOS>ATOM
      1 C1          6.2020   -1.1300    1.9500 C.3       1 UNL   -0.0469
      2 C2          4.9430   -0.5920    1.3830 C.ar      1 UNL   -0.3442
      3 S1          3.4800   -0.8960    2.2030 S.2       1 UNL    0.3716
      4 C3          2.5800   -0.0390    1.0390 C.ar      1 UNL    0.3727
      5 N1          1.2470    0.0790    1.1530 N.ar      1 UNL   -0.6480
      6 C4          0.6900    0.7730    0.1450 C.ar      1 UNL    0.6003
      7 C5         -0.8090    0.9460    0.1870 C.3       1 UNL    0.0875
      8 N2         -1.5820   -0.1610   -0.3880 N.4       1 UNL   -0.6834
      9 C6         -1.6640   -1.2410    0.5830 C.3       1 UNL    0.1228
     10 C7         -2.6280   -1.0080    1.7280 C.3       1 UNL   -0.1474
     11 C8         -3.9630   -0.4790    1.2620 C.3       1 UNL    0.1421
     12 O1         -4.9940   -1.2860    1.8000 O.3       1 UNL   -0.5778
     13 C9         -4.0700   -0.3980   -0.2430 C.3       1 UNL   -0.0727
     14 C10        -5.3860    0.2370   -0.6490 C.3       1 UNL   -0.0754
     15 C11        -5.3160    1.0370   -1.9310 C.3       1 UNL   -0.0904
     16 C12        -4.2920    0.4900   -2.8970 C.3       1 UNL   -0.0784
     17 C13        -2.9010    0.4360   -2.3040 C.3       1 UNL   -0.0974
     18 C14        -2.8770    0.3640   -0.7890 C.3       1 UNL    0.1305
     19 N3          1.3430    1.3500   -0.8810 N.ar      1 UNL   -0.7750
     20 C15         2.6770    1.1970   -0.9410 C.ar      1 UNL    0.7286
     21 O2          3.3220    1.7850   -2.0030 O.3       1 UNL   -0.5773
     22 C16         3.3740    0.4810    0.0320 C.ar      1 UNL   -0.3286
     23 C17         4.7630    0.1540    0.2360 C.ar      1 UNL   -0.0692
     24 C18         5.8610    0.5680   -0.6730 C.3       1 UNL   -0.0609
     25 H52        -1.1062    1.0589    1.2296 H         1 UNL    0.1172
     26 H53        -1.0663    1.8609   -0.3467 H         1 UNL    0.1172
     27 H2         -1.1013   -0.4995   -1.2092 H         1 UNL    0.4698
     28 H62        -0.6701   -1.3913    1.0046 H         1 UNL    0.1027
     29 H63        -1.9597   -2.1518    0.0624 H         1 UNL    0.1027
     30 H72        -2.7886   -1.9528    2.2472 H         1 UNL    0.0907
     31 H73        -2.1867   -0.2930    2.4224 H         1 UNL    0.0907
     32 H8         -4.0825    0.5281    1.6614 H         1 UNL    0.0477
     33 H9         -4.0411   -1.4115   -0.6432 H         1 UNL    0.0887
     34 H102       -5.7066    0.9025    0.1526 H         1 UNL    0.0712
     35 H103       -6.1310   -0.5496   -0.7686 H         1 UNL    0.0712
     36 H112       -6.2948    1.0162   -2.4101 H         1 UNL    0.0607
     37 H113       -5.0608    2.0692   -1.6910 H         1 UNL    0.0607
     38 H122       -4.2700    1.1283   -3.7803 H         1 UNL    0.0672
     39 H123       -4.5887   -0.5157   -3.1949 H         1 UNL    0.0672
     40 H132       -2.3954   -0.4462   -2.6967 H         1 UNL    0.0637
     41 H133       -2.3519    1.3229   -2.6202 H         1 UNL    0.0637
     42 H14        -2.9441    1.3852   -0.4139 H         1 UNL    0.1017
     43 HO1        -4.9531   -1.2600    2.7588 H         1 UNL    0.4210
     44 HO2         3.9620    2.4214   -1.6759 H         1 UNL    0.4530
     45 H11         5.9837   -1.6756    2.8680 H         1 UNL    0.0667
     46 H12         6.8821   -0.3070    2.1697 H         1 UNL    0.0667
     47 H13         6.6667   -1.8028    1.2293 H         1 UNL    0.0667
     48 H181        5.4499    1.1469   -1.5000 H         1 UNL    0.0617
     49 H182        6.5770    1.1786   -0.1229 H         1 UNL    0.0617
     50 H183        6.3629   -0.3174   -1.0633 H         1 UNL    0.0617
@<TRIPOS>BOND
     1    1    2 1
     2    2    3 ar
     3    2   23 ar
     4    3    4 ar
     5    4    5 ar
     6    4   22 ar
     7    5    6 ar
     8    6    7 1
     9    6   19 ar
    10    7    8 1
    11    8    9 1
    12    8   18 1
    13    9   10 1
    14   10   11 1
    15   11   12 1
    16   11   13 1
    17   13   14 1
    18   13   18 1
    19   14   15 1
    20   15   16 1
    21   16   17 1
    22   17   18 1
    23   19   20 ar
    24   20   21 1
    25   20   22 ar
    26   22   23 ar
    27   23   24 1
    28   25    7 1
    29   26    7 1
    30   27    8 1
    31   28    9 1
    32   29    9 1
    33   30   10 1
    34   31   10 1
    35   32   11 1
    36   33   13 1
    37   34   14 1
    38   35   14 1
    39   36   15 1
    40   37   15 1
    41   38   16 1
    42   39   16 1
    43   40   17 1
    44   41   17 1
    45   42   18 1
    46   43   12 1
    47   44   21 1
    48   45    1 1
    49   46    1 1
    50   47    1 1
    51   48   24 1
    52   49   24 1
    53   50   24 1
@<TRIPOS>SUBSTRUCTURE
     1 UNL     1 RESIDUE           4 A     UNL     0 ROOT
