@<TRIPOS>MOLECULE
m7.pdb
28 29 1 0 0
SMALL
AMBER ff14SB


@<TRIPOS>ATOM
      1 C1         -1.9770    1.9240    0.5940 C.3       1 UNL   -0.1051
      2 C2         -1.7450    0.4360    0.4920 C.3       1 UNL   -0.1230
      3 C3         -0.6850    0.1040   -0.5280 C.3       1 UNL    0.0960
      4 N1          0.6340    0.2710    0.0200 N.am      1 UNL   -0.5639
      5 C4          1.7310    0.0560   -0.7850 C.2       1 UNL    0.6917
      6 O1          1.6490   -0.2610   -1.9680 O.2       1 UNL   -0.6121
      7 C5          2.9980    0.2450   -0.1020 C.ar      1 UNL   -0.1816
      8 C6          3.2100    0.6130    1.2620 C.ar      1 UNL   -0.1310
      9 C7          4.5380    0.7060    1.5850 C.ar      1 UNL   -0.1851
     10 S1          5.5570    0.3590    0.2750 S.2       1 UNL    0.0682
     11 C8          4.2150    0.0830   -0.7240 C.ar      1 UNL   -0.1181
     12 C9         -3.0030   -0.3140    0.2400 C.ar      1 UNL    0.3927
     13 N2         -3.4830   -1.2160    1.0710 N.ar      1 UNL   -0.6420
     14 C10        -4.6560   -1.7330    0.5610 C.ar      1 UNL    0.3302
     15 C11        -5.0480   -1.2190   -0.6490 C.ar      1 UNL   -0.2624
     16 S2         -3.9350   -0.0530   -1.1890 S.2       1 UNL   -0.0803
     17 H2         -1.3678    0.1066    1.4602 H         1 UNL    0.0747
     18 H32        -0.8094   -0.9312   -0.8459 H         1 UNL    0.0732
     19 H33        -0.8001    0.7600   -1.3908 H         1 UNL    0.0732
     20 HN1         0.7548    0.5431    0.9851 H         1 UNL    0.3095
     21 H6          2.4095    0.7980    1.9630 H         1 UNL    0.1530
     22 H7          4.8972    0.9717    2.5682 H         1 UNL    0.1760
     23 H8          4.3076   -0.1969   -1.7630 H         1 UNL    0.1950
     24 H10        -5.2263   -2.4901    1.0786 H         1 UNL    0.0431
     25 H11        -5.9389   -1.5138   -1.1836 H         1 UNL    0.1800
     26 H12        -2.7475    2.1219    1.3392 H         1 UNL    0.0494
     27 H13        -1.0507    2.4164    0.8899 H         1 UNL    0.0494
     28 H14        -2.2999    2.3085   -0.3735 H         1 UNL    0.0494
@<TRIPOS>BOND
     1    1    2 1
     2    2    3 1
     3    2   12 1
     4    3    4 1
     5    4    5 am
     6    5    6 2
     7    5    7 1
     8    7    8 ar
     9    7   11 ar
    10    8    9 ar
    11    9   10 ar
    12   10   11 ar
    13   12   13 ar
    14   12   16 ar
    15   13   14 ar
    16   14   15 ar
    17   15   16 ar
    18   17    2 1
    19   18    3 1
    20   19    3 1
    21   20    4 1
    22   21    8 1
    23   22    9 1
    24   23   11 1
    25   24   14 1
    26   25   15 1
    27   26    1 1
    28   27    1 1
    29   28    1 1
@<TRIPOS>SUBSTRUCTURE
     1 UNL     1 RESIDUE           4 A     UNL     0 ROOT
