@<TRIPOS>MOLECULE
m8.pdb
43 44 1 0 0
SMALL
AMBER ff14SB


@<TRIPOS>ATOM
      1 C1         -1.7430    3.4720   -2.3360 C.3       1 UNL    0.0453
      2 O1         -1.6720    2.0670   -2.5620 O.3       1 UNL   -0.3189
      3 C2         -1.1030    1.4280   -1.5060 C.2       1 UNL    0.2682
      4 O2         -0.6620    1.9730   -0.5020 O.2       1 UNL   -0.2659
      5 C3         -1.0620   -0.0570   -1.7720 C.3       1 UNL    0.0729
      6 C4         -0.0490   -0.7110   -0.8220 C.3       1 UNL   -0.0045
      7 C5         -0.8020   -1.4030    0.3240 C.3       1 UNL    0.1362
      8 N1         -0.8060   -0.5490    1.5210 N.pl3     1 UNL   -0.0819
      9 S1          0.6690   -0.4440    2.3450 S.o2      1 UNL   -0.1518
     10 O3          1.5110   -1.5480    1.9290 O.2       1 UNL   -0.4861
     11 O4          0.4080   -0.1730    3.7420 O.2       1 UNL   -0.4861
     12 C6          1.3170    1.0490    1.6260 C.3       1 UNL    0.2315
     13 C7          2.7500    1.2530    2.0550 C.3       1 UNL    0.0523
     14 C8          3.6750    0.9180    0.9100 C.3       1 UNL   -0.0289
     15 C9          5.0960    0.8140    1.4090 C.3       1 UNL    0.0355
     16 C10         6.0080    0.6080    0.2870 C.1       1 UNL    0.0621
     17 N2          6.7220    0.4450   -0.6130 N.1       1 UNL   -0.1984
     18 C11        -2.1750   -1.5310   -0.2540 C.ar      1 UNL   -0.0140
     19 C12        -3.2180   -2.2950    0.2420 C.ar      1 UNL   -0.0565
     20 C13        -4.4310   -2.2790   -0.4460 C.ar      1 UNL   -0.0619
     21 C14        -4.5820   -1.5160   -1.6110 C.ar      1 UNL   -0.0619
     22 C15        -3.5240   -0.7540   -2.1060 C.ar      1 UNL   -0.0579
     23 C16        -2.3260   -0.7680   -1.4100 C.ar      1 UNL   -0.0294
     24 H3         -0.7957   -0.2532   -2.8106 H         1 UNL    0.0461
     25 H42         0.6130    0.0527   -0.4138 H         1 UNL    0.0305
     26 H43         0.5392   -1.4482   -1.3685 H         1 UNL    0.0305
     27 H5         -0.3741   -2.3817    0.5409 H         1 UNL    0.0659
     28 HN1        -1.6327   -0.0583    1.8306 H         1 UNL    0.2672
     29 H62         0.7178    1.8975    1.9564 H         1 UNL    0.1650
     30 H63         1.2719    0.9760    0.5394 H         1 UNL    0.1650
     31 H72         2.9710    0.6029    2.9016 H         1 UNL    0.0389
     32 H73         2.8967    2.2926    2.3478 H         1 UNL    0.0389
     33 H82         3.3760   -0.0338    0.4709 H         1 UNL    0.0282
     34 H83         3.6133    1.7007    0.1539 H         1 UNL    0.0282
     35 H92         5.1756   -0.0274    2.0973 H         1 UNL    0.0425
     36 H93         5.3647    1.7334    1.9292 H         1 UNL    0.0425
     37 H12        -3.0955   -2.8869    1.1370 H         1 UNL    0.0627
     38 H13        -5.2625   -2.8609   -0.0768 H         1 UNL    0.0623
     39 H14        -5.5282   -1.5178   -2.1317 H         1 UNL    0.0623
     40 H15        -3.6354   -0.1691   -3.0070 H         1 UNL    0.0626
     41 H11        -2.2186    3.9543   -3.1900 H         1 UNL    0.0537
     42 H16        -2.3281    3.6660   -1.4371 H         1 UNL    0.0537
     43 H17        -0.7367    3.8707   -2.2076 H         1 UNL    0.0537
@<TRIPOS>BOND
     1    1    2 1
     2    2    3 1
     3    3    4 2
     4    3    5 1
     5    5    6 1
     6    5   23 1
     7    6    7 1
     8    7    8 1
     9    7   18 1
    10    8    9 1
    11    9   10 2
    12    9   11 2
    13    9   12 1
    14   12   13 1
    15   13   14 1
    16   14   15 1
    17   15   16 1
    18   16   17 3
    19   18   19 ar
    20   18   23 ar
    21   19   20 ar
    22   20   21 ar
    23   21   22 ar
    24   22   23 ar
    25   24    5 1
    26   25    6 1
    27   26    6 1
    28   27    7 1
    29   28    8 1
    30   29   12 1
    31   30   12 1
    32   31   13 1
    33   32   13 1
    34   33   14 1
    35   34   14 1
    36   35   15 1
    37   36   15 1
    38   37   19 1
    39   38   20 1
    40   39   21 1
    41   40   22 1
    42   41    1 1
    43   42    1 1
    44   43    1 1
@<TRIPOS>SUBSTRUCTURE
     1 UNL     1 RESIDUE           4 A     UNL     0 ROOT
