@<TRIPOS>MOLECULE
/home/maksym/Desktop/model_summaries/dock6/xtal-lig.pdb
 53 55 0 0 0
SMALL
GASTEIGER

@<TRIPOS>ATOM
      1  CAB      -16.7470   11.8070  -16.3750 C.3     1  DRG1        0.0788
      2  OAR      -16.4920   13.2000  -16.0830 O.3     1  DRG1       -0.4943
      3  CAW      -15.6330   13.4560  -14.9780 C.ar    1  DRG1        0.1340
      4  CAK      -15.2480   12.4410  -14.0860 C.ar    1  DRG1        0.0031
      5  CAV      -14.3930   12.7610  -13.0170 C.ar    1  DRG1        0.0490
      6  NAP      -13.9850   11.7550  -12.0810 N.pl3   1  DRG1       -0.3457
      7  CAA      -14.6880   10.4800  -12.0620 C.3     1  DRG1       -0.0024
      8  CAU      -13.9070   14.0610  -12.8630 C.ar    1  DRG1        0.0627
      9 CLAE      -12.7980   14.4640  -11.5670 Cl      1  DRG1       -0.0816
     10  CAL      -14.2760   15.0520  -13.7480 C.ar    1  DRG1       -0.0259
     11  CAX      -15.1220   14.7460  -14.8030 C.ar    1  DRG1        0.0797
     12  CAS      -15.5130   15.9000  -15.7080 C.2     1  DRG1        0.2479
     13  OAD      -14.9040   16.9450  -15.6000 O.2     1  DRG1       -0.2701
     14  NAQ      -16.6220   15.7740  -16.6040 N.am    1  DRG1       -0.3069
     15  CAZ      -17.0140   16.9090  -17.4320 C.3     1  DRG1        0.0399
     16  CAY      -17.3990   16.5380  -18.7980 C.3     1  DRG1        0.0263
     17  CAC      -16.7630   15.1980  -19.2700 C.3     1  DRG1       -0.0478
     18  CAM      -18.2210   17.5300  -16.7510 C.3     1  DRG1       -0.0202
     19  CAN      -19.3470   17.4010  -17.9130 C.3     1  DRG1        0.0013
     20  NBA      -18.7880   16.3930  -18.8220 N.3     1  DRG1       -0.2937
     21  CAO      -19.2710   16.5350  -20.1590 C.3     1  DRG1        0.0244
     22  CAT      -20.8060   16.8170  -20.2250 C.ar    1  DRG1       -0.0334
     23  CAI      -21.2600   18.0520  -20.6880 C.ar    1  DRG1       -0.0573
     24  CAG      -22.6290   18.3270  -20.7520 C.ar    1  DRG1       -0.0615
     25  CAF      -23.5470   17.3640  -20.3510 C.ar    1  DRG1       -0.0617
     26  CAH      -23.1010   16.1350  -19.8880 C.ar    1  DRG1       -0.0615
     27  CAJ      -21.7290   15.8540  -19.8220 C.ar    1  DRG1       -0.0573
     28 H         -17.4005   11.7333  -17.2190 H       1  DRG1        0.0660
     29 H         -17.2059   11.3430  -15.5270 H       1  DRG1        0.0660
     30 H         -15.8233   11.3138  -16.5950 H       1  DRG1        0.0660
     31 H         -15.5878   11.4750  -14.2137 H       1  DRG1        0.0673
     32 H         -13.2401   11.9237  -11.4598 H       1  DRG1        0.1458
     33 H         -15.4593   10.4869  -12.8036 H       1  DRG1        0.0425
     34 H         -15.1230   10.3269  -11.0965 H       1  DRG1        0.0425
     35 H         -13.9984    9.6893  -12.2720 H       1  DRG1        0.0425
     36 H         -13.9249   16.0147  -13.6259 H       1  DRG1        0.0641
     37 H         -17.1178   14.9254  -16.6612 H       1  DRG1        0.1493
     38 H         -16.1770   17.5694  -17.5221 H       1  DRG1        0.0514
     39 H         -17.0502   17.3057  -19.4567 H       1  DRG1        0.0478
     40 H         -17.0903   14.4037  -18.6322 H       1  DRG1        0.0245
     41 H         -15.6966   15.2743  -19.2261 H       1  DRG1        0.0245
     42 H         -17.0649   14.9948  -20.2762 H       1  DRG1        0.0245
     43 H         -18.4994   16.9838  -15.8740 H       1  DRG1        0.0296
     44 H         -18.0616   18.5302  -16.4058 H       1  DRG1        0.0296
     45 H         -20.2807   17.0731  -17.5060 H       1  DRG1        0.0427
     46 H         -19.5527   18.3318  -18.3989 H       1  DRG1        0.0427
     47 H         -18.7543   17.3485  -20.6239 H       1  DRG1        0.0476
     48 H         -19.0930   15.6088  -20.6644 H       1  DRG1        0.0476
     49 H         -20.5796   18.7685  -20.9857 H       1  DRG1        0.0621
     50 H         -22.9571   19.2429  -21.0962 H       1  DRG1        0.0618
     51 H         -24.5586   17.5629  -20.3976 H       1  DRG1        0.0618
     52 H         -23.7845   15.4217  -19.5897 H       1  DRG1        0.0618
     53 H         -21.4040   14.9376  -19.4763 H       1  DRG1        0.0621
@<TRIPOS>BOND
     1    24    23   ar
     2    24    25   ar
     3    23    22   ar
     4    25    26   ar
     5    22    21    1
     6    22    27   ar
     7    21    20    1
     8    26    27   ar
     9    17    16    1
    10    20    16    1
    11    20    19    1
    12    16    15    1
    13    19    18    1
    14    15    18    1
    15    15    14    1
    16    14    12   am
    17     1     2    1
    18     2     3    1
    19    12    13    2
    20    12    11    1
    21     3    11   ar
    22     3     4   ar
    23    11    10   ar
    24     4     5   ar
    25    10     8   ar
    26     5     8   ar
    27     5     6    1
    28     8     9    1
    29     6     7    1
    30     1    28    1
    31     1    29    1
    32     1    30    1
    33     4    31    1
    34     6    32    1
    35     7    33    1
    36     7    34    1
    37     7    35    1
    38    10    36    1
    39    14    37    1
    40    15    38    1
    41    16    39    1
    42    17    40    1
    43    17    41    1
    44    17    42    1
    45    18    43    1
    46    18    44    1
    47    19    45    1
    48    19    46    1
    49    21    47    1
    50    21    48    1
    51    23    49    1
    52    24    50    1
    53    25    51    1
    54    26    52    1
    55    27    53    1
