
##########                                Name:              m1.pdb
##########                DOCK_Rotatable_Bonds:                   5
##########                    Molecular_Weight:             325.458
##########                       Formal_Charge:                   1
##########                          Grid_Score:          -54.374969
##########                     Grid_vdw_energy:          -46.587246
##########                      Grid_es_energy:           -7.787722
##########           Internal_energy_repulsive:            6.734092

@<TRIPOS>MOLECULE
m1.pdb
 44 47 1 0 0
SMALL
AMBER ff14SB


@<TRIPOS>ATOM
      1 C1        -22.7771   18.8916  -20.4152 C.ar    1  UNL         0.5459
      2 N1        -23.4241   17.7003  -20.6311 N.ar    1  UNL        -0.6500
      3 C2        -22.6312   16.8163  -20.0709 C.ar    1  UNL         0.4364
      4 N2        -21.5472   17.4630  -19.5672 N.ar    1  UNL        -0.1004
      5 C3        -20.4469   16.8660  -18.8516 C.3     1  UNL         0.0583
      6 C4        -19.1814   17.6722  -19.0616 C.3     1  UNL         0.0965
      7 C5        -18.8170   17.7123  -20.5307 C.3     1  UNL        -0.0964
      8 C6        -17.3067   17.8135  -20.5558 C.3     1  UNL        -0.1004
      9 C7        -16.8504   17.5458  -19.1359 C.3     1  UNL         0.1078
     10 N3        -18.0253   17.0322  -18.4403 N.4     1  UNL        -0.6934
     11 C8        -17.9377   17.3477  -17.0166 C.3     1  UNL         0.2291
     12 C9        -16.7735   16.7857  -16.2803 C.ar    1  UNL        -0.2614
     13 C10       -16.7041   15.6280  -15.5413 C.ar    1  UNL        -0.0820
     14 C11       -15.4211   15.3777  -14.9797 C.ar    1  UNL        -0.0400
     15 C12       -15.0207   14.2661  -14.1360 C.ar    1  UNL        -0.0490
     16 C13       -15.4547   12.9732  -14.4384 C.ar    1  UNL        -0.1105
     17 C14       -15.0831   11.8936  -13.6392 C.ar    1  UNL        -0.1245
     18 C15       -14.2718   12.1006  -12.5274 C.ar    1  UNL        -0.1050
     19 C16       -13.8330   13.3839  -12.2149 C.ar    1  UNL        -0.1245
     20 C17       -14.2065   14.4617  -13.0167 C.ar    1  UNL        -0.1105
     21 C18       -14.5560   16.3758  -15.3609 C.ar    1  UNL        -0.1301
     22 S1        -15.2507   17.5631  -16.3493 S.2     1  UNL         0.0882
     23 N4        -21.6173   18.7864  -19.7535 N.ar    1  UNL        -0.5438
     24 H1        -23.1719   19.8387  -20.7522 H       1  UNL         0.0911
     25 H2        -22.8106   15.7526  -20.0190 H       1  UNL         0.0821
     26 H32       -20.2904   15.8506  -19.2157 H       1  UNL         0.0762
     27 H33       -20.6827   16.8354  -17.7879 H       1  UNL         0.0762
     28 H4        -19.3079   18.6834  -18.6749 H       1  UNL         0.1437
     29 H52       -19.1486   16.8035  -21.0328 H       1  UNL         0.0912
     30 H53       -19.2609   18.5877  -21.0050 H       1  UNL         0.0912
     31 H62       -16.9986   18.8102  -20.8717 H       1  UNL         0.0917
     32 H63       -16.8929   17.0631  -21.2294 H       1  UNL         0.0917
     33 H72       -16.5026   18.4665  -18.6676 H       1  UNL         0.1057
     34 H73       -16.0559   16.7995  -19.1317 H       1  UNL         0.1057
     35 HN3       -18.0832   16.0315  -18.5639 H       1  UNL         0.4348
     36 H82       -18.8430   16.9734  -16.5387 H       1  UNL         0.1027
     37 H83       -17.9183   18.4322  -16.9083 H       1  UNL         0.1027
     38 H10       -17.5475   14.9683  -15.4001 H       1  UNL         0.1770
     39 H13       -16.0846   12.8086  -15.3000 H       1  UNL         0.1315
     40 H14       -15.4241   10.8981  -13.8823 H       1  UNL         0.1435
     41 H15       -13.9826   11.2651  -11.9070 H       1  UNL         0.1470
     42 H16       -13.2038   13.5448  -11.3521 H       1  UNL         0.1435
     43 H17       -13.8639   15.4560  -12.7710 H       1  UNL         0.1315
     44 H18       -13.5203   16.4008  -15.0557 H       1  UNL         0.1990
@<TRIPOS>BOND
     1     1     2   ar
     2     1    23   ar
     3     2     3   ar
     4     3     4   ar
     5     4     5    1
     6     4    23   ar
     7     5     6    1
     8     6     7    1
     9     6    10    1
    10     7     8    1
    11     8     9    1
    12     9    10    1
    13    10    11    1
    14    11    12    1
    15    12    13   ar
    16    12    22   ar
    17    13    14   ar
    18    14    15    1
    19    14    21   ar
    20    15    16   ar
    21    15    20   ar
    22    16    17   ar
    23    17    18   ar
    24    18    19   ar
    25    19    20   ar
    26    21    22   ar
    27    24     1    1
    28    25     3    1
    29    26     5    1
    30    27     5    1
    31    28     6    1
    32    29     7    1
    33    30     7    1
    34    31     8    1
    35    32     8    1
    36    33     9    1
    37    34     9    1
    38    35    10    1
    39    36    11    1
    40    37    11    1
    41    38    13    1
    42    39    16    1
    43    40    17    1
    44    41    18    1
    45    42    19    1
    46    43    20    1
    47    44    21    1
@<TRIPOS>SUBSTRUCTURE
     1 UNL         1 TEMP              0 ****  ****    0 ROOT

