
     RDKit          3D

 31 33  0  0  0  0  0  0  0  0999 V2000
   10.1125   -1.1725   22.5205 C   0  0  0  0  0  0  0  0  0  0  0  0
   11.4554   -1.6315   22.4520 O   0  0  0  0  0  0  0  0  0  0  0  0
   11.9789   -2.2223   23.5744 C   0  0  0  0  0  0  0  0  0  0  0  0
   11.2844   -3.1030   24.4112 C   0  0  0  0  0  0  0  0  0  0  0  0
   11.9040   -3.6675   25.5405 C   0  0  0  0  0  0  0  0  0  0  0  0
   11.1441   -4.6306   26.4219 C   0  0  0  0  0  0  0  0  0  0  0  0
   10.5441   -5.7013   25.6295 N   0  0  0  0  0  0  0  0  0  0  0  0
    9.2031   -6.0369   26.1277 C   0  0  0  0  0  0  0  0  0  0  0  0
    8.1212   -5.2394   25.3847 C   0  0  0  0  0  0  0  0  0  0  0  0
    7.9568   -5.8079   24.0800 O   0  0  0  0  0  0  0  0  0  0  0  0
    7.2409   -5.0748   23.1796 C   0  0  0  0  0  0  0  0  0  0  0  0
    6.9217   -5.7290   21.9919 C   0  0  0  0  0  0  0  0  0  0  0  0
    6.1990   -5.0653   21.0035 C   0  0  0  0  0  0  0  0  0  0  0  0
    5.8156   -3.7562   21.2402 C   0  0  0  0  0  0  0  0  0  0  0  0
    6.1015   -3.0876   22.3772 N   0  0  0  0  0  0  0  0  0  0  0  0
    6.8040   -3.7634   23.3208 C   0  0  0  0  0  0  0  0  0  0  0  0
   13.2300   -3.3263   25.8315 C   0  0  0  0  0  0  0  0  0  0  0  0
   13.9327   -2.4517   25.0012 C   0  0  0  0  0  0  0  0  0  0  0  0
   13.3092   -1.8894   23.8830 C   0  0  0  0  0  0  0  0  0  0  0  0
   13.9722   -1.0696   23.0048 O   0  0  0  0  0  0  0  0  0  0  0  0
   14.3607    0.2133   23.5182 C   0  0  0  0  0  0  0  0  0  0  0  0
   13.1245    1.1235   23.5538 C   0  0  1  0  0  0  0  0  0  0  0  0
   12.6172    1.1361   24.8997 O   0  0  0  0  0  0  0  0  0  0  0  0
   13.4879    2.5597   23.1148 C   0  0  0  0  0  0  0  0  0  0  0  0
   12.5263    3.1901   22.1807 N   0  0  0  0  0  0  0  0  0  0  0  0
   11.2291    3.5352   22.7843 C   0  0  0  0  0  0  0  0  0  0  0  0
   11.2945    4.7125   23.7548 C   0  0  0  0  0  0  0  0  0  0  0  0
   11.9077    5.9334   23.0750 C   0  0  0  0  0  0  0  0  0  0  0  0
   12.0913    6.9839   24.0210 O   0  0  0  0  0  0  0  0  0  0  0  0
   13.2422    5.5920   22.4209 C   0  0  0  0  0  0  0  0  0  0  0  0
   13.1106    4.3674   21.5149 C   0  0  0  0  0  0  0  0  0  0  0  0
  1  2  1  0
  2  3  1  0
  3  4  2  0
  4  5  1  0
  5  6  1  0
  6  7  1  0
  7  8  1  0
  8  9  1  0
  9 10  1  0
 10 11  1  0
 11 12  2  0
 12 13  1  0
 13 14  2  0
 14 15  1  0
 15 16  2  0
  5 17  2  0
 17 18  1  0
 18 19  2  0
 19 20  1  0
 20 21  1  0
 21 22  1  0
 22 23  1  1
 22 24  1  0
 24 25  1  0
 25 26  1  0
 26 27  1  0
 27 28  1  0
 28 29  1  0
 28 30  1  0
 30 31  1  0
 19  3  1  0
 31 25  1  0
 16 11  1  0
M  END
