
     RDKit          3D

 36 39  0  0  0  0  0  0  0  0999 V2000
   13.8818    4.2449   23.7472 C   0  0  0  0  0  0  0  0  0  0  0  0
   13.0650    4.9215   22.6608 C   0  0  0  0  0  0  0  0  0  0  0  0
   12.0600    4.0019   22.2191 O   0  0  0  0  0  0  0  0  0  0  0  0
   11.0159    3.8350   23.0833 C   0  0  0  0  0  0  0  0  0  0  0  0
   10.7341    4.6400   23.9666 O   0  0  0  0  0  0  0  0  0  0  0  0
   10.2699    2.5965   22.8459 C   0  0  0  0  0  0  0  0  0  0  0  0
    8.8844    2.5187   22.7035 C   0  0  0  0  0  0  0  0  0  0  0  0
    7.8780    3.6230   22.7384 C   0  0  0  0  0  0  0  0  0  0  0  0
    8.5461    1.1882   22.5417 N   0  0  0  0  0  0  0  0  0  0  0  0
    7.1872    0.6678   22.3736 C   0  0  0  0  0  0  0  0  0  0  0  0
    6.7551    0.6037   20.9273 C   0  0  0  0  0  0  0  0  0  0  0  0
    5.7386    1.4534   20.4640 C   0  0  0  0  0  0  0  0  0  0  0  0
    5.3429    1.4266   19.1257 C   0  0  0  0  0  0  0  0  0  0  0  0
    5.9656    0.5602   18.2305 C   0  0  0  0  0  0  0  0  0  0  0  0
    6.9865   -0.2786   18.6722 C   0  0  0  0  0  0  0  0  0  0  0  0
    7.3840   -0.2532   20.0104 C   0  0  0  0  0  0  0  0  0  0  0  0
    9.6866    0.4042   22.5417 C   0  0  0  0  0  0  0  0  0  0  0  0
    9.8536   -0.9860   22.4083 C   0  0  0  0  0  0  0  0  0  0  0  0
   11.1442   -1.5232   22.4870 C   0  0  0  0  0  0  0  0  0  0  0  0
   12.2450   -0.7074   22.6991 C   0  0  0  0  0  0  0  0  0  0  0  0
   13.5427   -1.1120   22.8352 O   0  0  0  0  0  0  0  0  0  0  0  0
   13.8595   -2.1977   23.7113 C   0  0  0  0  0  0  0  0  0  0  0  0
   13.9017   -1.8131   25.2027 C   0  0  2  0  0  0  0  0  0  0  0  0
   14.7788   -2.6890   25.9289 O   0  0  0  0  0  0  0  0  0  0  0  0
   12.5168   -1.8146   25.8870 C   0  0  0  0  0  0  0  0  0  0  0  0
   11.7098   -2.9906   25.4738 N   0  0  0  0  0  0  0  0  0  0  0  0
   12.0554   -4.2022   26.2480 C   0  0  0  0  0  0  0  0  0  0  0  0
   11.1409   -5.4041   25.9078 C   0  0  0  0  0  0  0  0  0  0  0  0
    9.6896   -5.1453   26.0454 N   0  0  0  0  0  0  0  0  0  0  0  0
    9.2971   -5.0626   27.4711 C   0  0  0  0  0  0  0  0  0  0  0  0
    7.8221   -5.4456   27.6778 C   0  0  0  0  0  0  0  0  0  0  0  0
    7.0073   -4.2764   27.6190 O   0  0  0  0  0  0  0  0  0  0  0  0
    9.3735   -3.9098   25.2918 C   0  0  0  0  0  0  0  0  0  0  0  0
   10.2691   -2.6943   25.6282 C   0  0  0  0  0  0  0  0  0  0  0  0
   12.0641    0.6778   22.8105 C   0  0  0  0  0  0  0  0  0  0  0  0
   10.7752    1.2570   22.7351 C   0  0  0  0  0  0  0  0  0  0  0  0
  1  2  1  0
  2  3  1  0
  3  4  1  0
  4  5  2  0
  4  6  1  0
  6  7  2  0
  7  8  1  0
  7  9  1  0
  9 10  1  0
 10 11  1  0
 11 12  2  0
 12 13  1  0
 13 14  2  0
 14 15  1  0
 15 16  2  0
  9 17  1  0
 17 18  2  0
 18 19  1  0
 19 20  2  0
 20 21  1  0
 21 22  1  0
 22 23  1  0
 23 24  1  1
 23 25  1  0
 25 26  1  0
 26 27  1  0
 27 28  1  0
 28 29  1  0
 29 30  1  0
 30 31  1  0
 31 32  1  0
 29 33  1  0
 33 34  1  0
 20 35  1  0
 35 36  2  0
 36  6  1  0
 16 11  1  0
 36 17  1  0
 34 26  1  0
M  END
