
     RDKit          3D

 35 38  0  0  0  0  0  0  0  0999 V2000
    8.9380    6.1888   23.0753 C   0  0  0  0  0  0  0  0  0  0  0  0
    9.8876    5.1188   23.6025 C   0  0  0  0  0  0  0  0  0  0  0  0
   11.1865    5.1339   22.9174 N   0  0  0  0  0  0  0  0  0  0  0  0
   11.9784    6.3273   23.2409 C   0  0  0  0  0  0  0  0  0  0  0  0
   13.3727    5.9666   22.7626 C   0  0  0  0  0  0  0  0  0  0  0  0
   13.4368    4.4463   22.8305 C   0  0  0  0  0  0  0  0  0  0  0  0
   12.0509    3.9953   23.3013 C   0  0  2  0  0  0  0  0  0  0  0  0
   11.5886    2.6388   22.7148 C   0  0  0  0  0  0  0  0  0  0  0  0
   11.5117    1.5401   23.7073 N   0  0  0  0  0  0  0  0  0  0  0  0
   10.1578    1.3331   24.2774 C   0  0  0  0  0  0  0  0  0  0  0  0
    9.0714    1.3208   23.2314 C   0  0  0  0  0  0  0  0  0  0  0  0
    8.0493    2.1877   23.1128 C   0  0  0  0  0  0  0  0  0  0  0  0
    7.0619    2.0617   22.0413 C   0  0  0  0  0  0  0  0  0  0  0  0
    6.0179    2.9769   21.9270 C   0  0  0  0  0  0  0  0  0  0  0  0
    5.0885    2.8457   20.8965 C   0  0  0  0  0  0  0  0  0  0  0  0
    5.1824    1.7989   19.9632 C   0  0  0  0  0  0  0  0  0  0  0  0
    4.1455    1.7213   18.8741 C   0  0  0  0  0  0  0  0  0  0  0  0
    6.2322    0.8577   20.0738 C   0  0  0  0  0  0  0  0  0  0  0  0
    6.3731   -0.2807   19.0956 C   0  0  0  0  0  0  0  0  0  0  0  0
    7.1700    1.0119   21.1183 C   0  0  0  0  0  0  0  0  0  0  0  0
    8.2426    0.1174   21.2651 N   0  0  0  0  0  0  0  0  0  0  0  0
    9.1893    0.2014   22.2485 C   0  0  0  0  0  0  0  0  0  0  0  0
   10.0958   -0.6244   22.3231 O   0  0  0  0  0  0  0  0  0  0  0  0
   12.5884    0.6947   24.0482 C   0  0  0  0  0  0  0  0  0  0  0  0
   14.1623    0.8828   23.4732 S   0  0  0  0  0  0  0  0  0  0  0  0
   12.2632   -0.3126   24.9382 N   0  0  0  0  0  0  0  0  0  0  0  0
   13.1731   -1.3294   25.4640 C   0  0  0  0  0  0  0  0  0  0  0  0
   12.7828   -2.7421   25.0287 C   0  0  0  0  0  0  0  0  0  0  0  0
   11.2598   -2.9397   25.0163 C   0  0  0  0  0  0  0  0  0  0  0  0
   10.8679   -4.3496   25.1581 N   0  0  0  0  0  0  0  0  0  0  0  0
   11.1674   -4.8683   26.5125 C   0  0  0  0  0  0  0  0  0  0  0  0
    9.9384   -4.9231   27.4329 C   0  0  0  0  0  0  0  0  0  0  0  0
    8.8887   -5.7566   26.9221 O   0  0  0  0  0  0  0  0  0  0  0  0
    8.8873   -5.8407   25.4896 C   0  0  0  0  0  0  0  0  0  0  0  0
    9.4445   -4.5750   24.8200 C   0  0  0  0  0  0  0  0  0  0  0  0
  1  2  1  0
  2  3  1  0
  3  4  1  0
  4  5  1  0
  5  6  1  0
  6  7  1  0
  7  8  1  6
  8  9  1  0
  9 10  1  0
 10 11  1  0
 11 12  2  0
 12 13  1  0
 13 14  2  0
 14 15  1  0
 15 16  2  0
 16 17  1  0
 16 18  1  0
 18 19  1  0
 18 20  2  0
 20 21  1  0
 21 22  1  0
 22 23  2  0
  9 24  1  0
 24 25  2  0
 24 26  1  0
 26 27  1  0
 27 28  1  0
 28 29  1  0
 29 30  1  0
 30 31  1  0
 31 32  1  0
 32 33  1  0
 33 34  1  0
 34 35  1  0
  7  3  1  0
 22 11  1  0
 35 30  1  0
 20 13  1  0
M  END
