
     RDKit          3D

 31 32  0  0  0  0  0  0  0  0999 V2000
    2.8044    5.0775   14.6657 C   0  0  0  0  0  0  0  0  0  0  0  0
    1.6985    5.3107   15.6897 C   0  0  0  0  0  0  0  0  0  0  0  0
    2.1910    5.9077   16.9437 N   0  0  0  0  0  0  0  0  0  0  0  0
    2.4282    7.3494   16.7610 C   0  0  0  0  0  0  0  0  0  0  0  0
    1.1759    8.0869   16.2960 C   0  0  0  0  0  0  0  0  0  0  0  0
    1.2914    5.6337   18.0845 C   0  0  0  0  0  0  0  0  0  0  0  0
    1.5252    4.1980   18.6155 C   0  0  0  0  0  0  0  0  0  0  0  0
    2.7698    3.9510   19.3686 N   0  0  0  0  0  0  0  0  0  0  0  0
    3.0267    4.9925   20.3630 C   0  0  0  0  0  0  0  0  0  0  0  0
    2.8013    2.6023   19.9542 C   0  0  0  0  0  0  0  0  0  0  0  0
    4.2025    2.1120   20.2590 C   0  0  0  0  0  0  0  0  0  0  0  0
    4.7875    2.3535   21.5079 C   0  0  0  0  0  0  0  0  0  0  0  0
    6.0796    1.8988   21.7900 C   0  0  0  0  0  0  0  0  0  0  0  0
    6.8006    1.1814   20.8313 C   0  0  0  0  0  0  0  0  0  0  0  0
    8.0716    0.7011   21.0140 O   0  0  0  0  0  0  0  0  0  0  0  0
    8.4139    0.2085   22.3076 C   0  0  0  0  0  0  0  0  0  0  0  0
    9.2937   -1.0323   22.1398 C   0  0  2  0  0  0  0  0  0  0  0  0
    8.6219   -1.9877   21.3078 O   0  0  0  0  0  0  0  0  0  0  0  0
    9.6118   -1.6912   23.5013 C   0  0  0  0  0  0  0  0  0  0  0  0
   11.0027   -1.3845   23.9311 N   0  0  0  0  0  0  0  0  0  0  0  0
   11.5829   -2.5623   24.5950 C   0  0  0  0  0  0  0  0  0  0  0  0
   13.0278   -2.4088   25.0853 C   0  0  0  0  0  0  0  0  0  0  0  0
   14.0532   -2.0253   24.0176 C   0  0  0  0  0  0  0  0  0  0  0  0
   13.8641   -0.6820   23.3072 C   0  0  0  0  0  0  0  0  0  0  0  0
   13.5041    0.4909   24.2206 C   0  0  0  0  0  0  0  0  0  0  0  0
   12.0167    0.8641   24.2304 C   0  0  0  0  0  0  0  0  0  0  0  0
   11.0483   -0.1858   24.7868 C   0  0  0  0  0  0  0  0  0  0  0  0
    6.2162    0.9233   19.5782 C   0  0  0  0  0  0  0  0  0  0  0  0
    6.9796    0.2337   18.6668 O   0  0  0  0  0  0  0  0  0  0  0  0
    6.4902   -1.0542   18.3179 C   0  0  0  0  0  0  0  0  0  0  0  0
    4.9306    1.3965   19.2960 C   0  0  0  0  0  0  0  0  0  0  0  0
  1  2  1  0
  2  3  1  0
  3  4  1  0
  4  5  1  0
  3  6  1  0
  6  7  1  0
  7  8  1  0
  8  9  1  0
  8 10  1  0
 10 11  1  0
 11 12  2  0
 12 13  1  0
 13 14  2  0
 14 15  1  0
 15 16  1  0
 16 17  1  0
 17 18  1  6
 17 19  1  0
 19 20  1  0
 20 21  1  0
 21 22  1  0
 22 23  1  0
 23 24  1  0
 24 25  1  0
 25 26  1  0
 26 27  1  0
 14 28  1  0
 28 29  1  0
 29 30  1  0
 28 31  2  0
 31 11  1  0
 27 20  1  0
M  END
