
     RDKit          3D

 31 32  0  0  0  0  0  0  0  0999 V2000
    2.5045    7.2508   21.8298 C   0  0  0  0  0  0  0  0  0  0  0  0
    3.4929    8.4138   21.8319 C   0  0  0  0  0  0  0  0  0  0  0  0
    4.7308    8.1396   21.0838 N   0  0  0  0  0  0  0  0  0  0  0  0
    5.2487    9.2998   20.3385 C   0  0  0  0  0  0  0  0  0  0  0  0
    4.3644    9.8364   19.2165 C   0  0  0  0  0  0  0  0  0  0  0  0
    5.7751    7.5592   21.9585 C   0  0  0  0  0  0  0  0  0  0  0  0
    6.8200    6.7248   21.1802 C   0  0  0  0  0  0  0  0  0  0  0  0
    7.5648    5.8345   22.1011 N   0  0  0  0  0  0  0  0  0  0  0  0
    8.2655    6.5923   23.1554 C   0  0  0  0  0  0  0  0  0  0  0  0
    9.7752    6.3691   23.1538 C   0  0  0  0  0  0  0  0  0  0  0  0
    6.6460    4.8384   22.6885 C   0  0  0  0  0  0  0  0  0  0  0  0
    6.6157    3.5187   21.9417 C   0  0  0  0  0  0  0  0  0  0  0  0
    5.4752    3.1285   21.2305 C   0  0  0  0  0  0  0  0  0  0  0  0
    5.4356    1.9019   20.5651 C   0  0  0  0  0  0  0  0  0  0  0  0
    6.5356    1.0403   20.6041 C   0  0  0  0  0  0  0  0  0  0  0  0
    6.5831   -0.1872   19.9873 O   0  0  0  0  0  0  0  0  0  0  0  0
    6.4405   -0.2169   18.5744 C   0  0  0  0  0  0  0  0  0  0  0  0
    7.6911    1.4200   21.3176 C   0  0  0  0  0  0  0  0  0  0  0  0
    8.7204    0.5132   21.3057 O   0  0  0  0  0  0  0  0  0  0  0  0
    9.1612   -0.0692   22.5280 C   0  0  0  0  0  0  0  0  0  0  0  0
   10.2387   -1.1337   22.3027 C   0  0  2  0  0  0  0  0  0  0  0  0
    9.6083   -2.3789   21.9680 O   0  0  0  0  0  0  0  0  0  0  0  0
   11.1881   -1.3596   23.5025 C   0  0  0  0  0  0  0  0  0  0  0  0
   12.4870   -0.6708   23.3033 N   0  0  0  0  0  0  0  0  0  0  0  0
   13.5670   -1.6305   22.9516 C   0  0  0  0  0  0  0  0  0  0  0  0
   14.0669   -2.5323   24.1101 C   0  0  0  0  0  0  0  0  0  0  0  0
   14.4551   -1.7545   25.3014 N   0  0  0  0  0  0  0  0  0  0  0  0
   14.8353   -2.6385   26.3994 C   0  0  0  0  0  0  0  0  0  0  0  0
   13.3558   -0.8600   25.6982 C   0  0  0  0  0  0  0  0  0  0  0  0
   12.9107    0.0490   24.5290 C   0  0  0  0  0  0  0  0  0  0  0  0
    7.7180    2.6508   21.9848 C   0  0  0  0  0  0  0  0  0  0  0  0
  1  2  1  0
  2  3  1  0
  3  4  1  0
  4  5  1  0
  3  6  1  0
  6  7  1  0
  7  8  1  0
  8  9  1  0
  9 10  1  0
  8 11  1  0
 11 12  1  0
 12 13  2  0
 13 14  1  0
 14 15  2  0
 15 16  1  0
 16 17  1  0
 15 18  1  0
 18 19  1  0
 19 20  1  0
 20 21  1  0
 21 22  1  1
 21 23  1  0
 23 24  1  0
 24 25  1  0
 25 26  1  0
 26 27  1  0
 27 28  1  0
 27 29  1  0
 29 30  1  0
 18 31  2  0
 31 12  1  0
 30 24  1  0
M  END
