
     RDKit          3D

 32 34  0  0  0  0  0  0  0  0999 V2000
    8.8188    5.4529   25.7967 C   0  0  0  0  0  0  0  0  0  0  0  0
   10.1907    5.5876   25.1436 C   0  0  0  0  0  0  0  0  0  0  0  0
   10.0926    5.5275   23.6757 N   0  0  0  0  0  0  0  0  0  0  0  0
   11.3480    5.9800   23.0481 C   0  0  0  0  0  0  0  0  0  0  0  0
   12.5700    5.0472   23.2593 C   0  0  0  0  0  0  0  0  0  0  0  0
   12.2308    3.6191   23.4625 N   0  0  0  0  0  0  0  0  0  0  0  0
   13.3666    2.7594   23.0603 C   0  0  0  0  0  0  0  0  0  0  0  0
   13.1332    1.2846   23.4614 C   0  0  2  0  0  0  0  0  0  0  0  0
   12.7115    1.2361   24.8318 O   0  0  0  0  0  0  0  0  0  0  0  0
   14.4074    0.4538   23.2868 C   0  0  0  0  0  0  0  0  0  0  0  0
   14.0439   -0.8507   22.8418 O   0  0  0  0  0  0  0  0  0  0  0  0
   13.4530   -1.6979   23.7427 C   0  0  0  0  0  0  0  0  0  0  0  0
   14.0493   -2.1270   24.9319 C   0  0  0  0  0  0  0  0  0  0  0  0
   13.3734   -3.0039   25.7839 C   0  0  0  0  0  0  0  0  0  0  0  0
   12.0880   -3.4566   25.4666 C   0  0  0  0  0  0  0  0  0  0  0  0
   11.3437   -4.3912   26.3903 C   0  0  0  0  0  0  0  0  0  0  0  0
   10.8470   -5.5910   25.7149 N   0  0  0  0  0  0  0  0  0  0  0  0
    9.6617   -6.1514   26.3655 C   0  0  0  0  0  0  0  0  0  0  0  0
    8.3788   -5.4771   25.8775 C   0  0  0  0  0  0  0  0  0  0  0  0
    8.1497   -5.5092   24.3636 C   0  0  0  0  0  0  0  0  0  0  0  0
    6.7554   -5.4621   23.9576 N   0  0  0  0  0  0  0  0  0  0  0  0
    5.7367   -4.8250   24.7537 C   0  0  0  0  0  0  0  0  0  0  0  0
    4.4524   -5.2757   24.0845 C   0  0  0  0  0  0  0  0  0  0  0  0
    4.8399   -5.4125   22.6158 C   0  0  0  0  0  0  0  0  0  0  0  0
    6.3055   -5.7679   22.6816 C   0  0  0  0  0  0  0  0  0  0  0  0
    6.9707   -6.1962   21.7531 O   0  0  0  0  0  0  0  0  0  0  0  0
   11.4814   -3.0070   24.2814 C   0  0  0  0  0  0  0  0  0  0  0  0
   12.1528   -2.1333   23.4177 C   0  0  0  0  0  0  0  0  0  0  0  0
   11.6356   -1.6554   22.2362 O   0  0  0  0  0  0  0  0  0  0  0  0
   10.3619   -1.0267   22.2831 C   0  0  0  0  0  0  0  0  0  0  0  0
   10.9946    3.3006   22.7267 C   0  0  0  0  0  0  0  0  0  0  0  0
    9.7845    4.1570   23.1991 C   0  0  0  0  0  0  0  0  0  0  0  0
  1  2  1  0
  2  3  1  0
  3  4  1  0
  4  5  1  0
  5  6  1  0
  6  7  1  0
  7  8  1  0
  8  9  1  1
  8 10  1  0
 10 11  1  0
 11 12  1  0
 12 13  2  0
 13 14  1  0
 14 15  2  0
 15 16  1  0
 16 17  1  0
 17 18  1  0
 18 19  1  0
 19 20  1  0
 20 21  1  0
 21 22  1  0
 22 23  1  0
 23 24  1  0
 24 25  1  0
 25 26  2  0
 15 27  1  0
 27 28  2  0
 28 29  1  0
 29 30  1  0
  6 31  1  0
 31 32  1  0
 32  3  1  0
 28 12  1  0
 25 21  1  0
M  END
