
     RDKit          3D

 32 34  0  0  0  0  0  0  0  0999 V2000
   10.7773    7.7699   25.2221 C   0  0  0  0  0  0  0  0  0  0  0  0
   12.0579    7.4006   24.4781 C   0  0  0  0  0  0  0  0  0  0  0  0
   11.9754    6.2913   23.5252 N   0  0  0  0  0  0  0  0  0  0  0  0
   13.2501    5.9988   22.8544 C   0  0  0  0  0  0  0  0  0  0  0  0
   13.1017    4.8692   21.8075 C   0  0  0  0  0  0  0  0  0  0  0  0
   12.5263    3.6070   22.3249 N   0  0  0  0  0  0  0  0  0  0  0  0
   13.4381    2.8699   23.2357 C   0  0  0  0  0  0  0  0  0  0  0  0
   13.0474    1.3820   23.3897 C   0  0  2  0  0  0  0  0  0  0  0  0
   12.3137    1.2058   24.6085 O   0  0  0  0  0  0  0  0  0  0  0  0
   14.2643    0.4483   23.3500 C   0  0  0  0  0  0  0  0  0  0  0  0
   13.9385   -0.7730   22.6679 O   0  0  0  0  0  0  0  0  0  0  0  0
   13.2127   -1.5935   23.4889 C   0  0  0  0  0  0  0  0  0  0  0  0
   13.7948   -2.0584   24.6655 C   0  0  0  0  0  0  0  0  0  0  0  0
   13.0709   -2.9101   25.5018 C   0  0  0  0  0  0  0  0  0  0  0  0
   11.7687   -3.3147   25.1599 C   0  0  0  0  0  0  0  0  0  0  0  0
   10.9709   -4.1931   26.0956 C   0  0  0  0  0  0  0  0  0  0  0  0
   10.8568   -5.5404   25.5494 N   0  0  0  0  0  0  0  0  0  0  0  0
    9.6703   -6.2261   26.0464 C   0  0  0  0  0  0  0  0  0  0  0  0
    8.4273   -5.6842   25.3810 C   0  0  0  0  0  0  0  0  0  0  0  0
    7.4177   -5.0691   26.1323 C   0  0  0  0  0  0  0  0  0  0  0  0
    6.2688   -4.5870   25.5050 C   0  0  0  0  0  0  0  0  0  0  0  0
    6.1086   -4.7257   24.1233 C   0  0  0  0  0  0  0  0  0  0  0  0
    7.1004   -5.3440   23.3615 C   0  0  0  0  0  0  0  0  0  0  0  0
    7.0615   -5.5464   22.0100 O   0  0  0  0  0  0  0  0  0  0  0  0
    5.9222   -5.0415   21.3264 C   0  0  0  0  0  0  0  0  0  0  0  0
    8.2583   -5.8061   23.9920 C   0  0  0  0  0  0  0  0  0  0  0  0
   11.2014   -2.8521   23.9622 C   0  0  0  0  0  0  0  0  0  0  0  0
   11.9301   -2.0084   23.1223 C   0  0  0  0  0  0  0  0  0  0  0  0
   11.3626   -1.5125   21.9774 O   0  0  0  0  0  0  0  0  0  0  0  0
   10.1692   -0.7960   22.2933 C   0  0  0  0  0  0  0  0  0  0  0  0
   11.2607    3.9412   23.0238 C   0  0  0  0  0  0  0  0  0  0  0  0
   11.3775    5.0680   24.0831 C   0  0  0  0  0  0  0  0  0  0  0  0
  1  2  1  0
  2  3  1  0
  3  4  1  0
  4  5  1  0
  5  6  1  0
  6  7  1  0
  7  8  1  0
  8  9  1  1
  8 10  1  0
 10 11  1  0
 11 12  1  0
 12 13  2  0
 13 14  1  0
 14 15  2  0
 15 16  1  0
 16 17  1  0
 17 18  1  0
 18 19  1  0
 19 20  2  0
 20 21  1  0
 21 22  2  0
 22 23  1  0
 23 24  1  0
 24 25  1  0
 23 26  2  0
 15 27  1  0
 27 28  2  0
 28 29  1  0
 29 30  1  0
  6 31  1  0
 31 32  1  0
 32  3  1  0
 28 12  1  0
 26 19  1  0
M  END
