
     RDKit          3D

 36 40  0  0  0  0  0  0  0  0999 V2000
    6.8227   -3.7822   28.8200 C   0  0  0  0  0  0  0  0  0  0  0  0
    7.2168   -5.1888   28.8327 N   0  0  0  0  0  0  0  0  0  0  0  0
    8.6321   -5.3554   29.2146 C   0  0  0  0  0  0  0  0  0  0  0  0
    9.6555   -4.9517   28.1262 C   0  0  0  0  0  0  0  0  0  0  0  0
    9.4155   -5.6221   26.8305 N   0  0  0  0  0  0  0  0  0  0  0  0
   10.3728   -5.1371   25.8224 C   0  0  0  0  0  0  0  0  0  0  0  0
    9.9966   -3.7905   25.1649 C   0  0  1  0  0  0  0  0  0  0  0  0
   11.2747   -3.0603   24.7191 C   0  0  0  0  0  0  0  0  0  0  0  0
   10.9283   -1.7609   23.9871 C   0  0  1  0  0  0  0  0  0  0  0  0
   12.1750   -1.0641   23.4575 C   0  0  0  0  0  0  0  0  0  0  0  0
   12.6860   -1.3261   22.3735 O   0  0  0  0  0  0  0  0  0  0  0  0
   12.6755   -0.0975   24.3048 N   0  0  0  0  0  0  0  0  0  0  0  0
   13.8597    0.6730   23.9692 C   0  0  0  0  0  0  0  0  0  0  0  0
   13.5485    1.7987   22.9613 C   0  0  0  0  0  0  0  0  0  0  0  0
   13.0423    3.0654   23.5017 N   0  0  0  0  0  0  0  0  0  0  0  0
   11.6144    3.0418   23.8687 C   0  0  0  0  0  0  0  0  0  0  0  0
   10.7302    3.9018   22.9502 C   0  0  0  0  0  0  0  0  0  0  0  0
   11.1447    5.2728   22.8652 O   0  0  0  0  0  0  0  0  0  0  0  0
   12.5466    5.4587   23.1091 C   0  0  0  0  0  0  0  0  0  0  0  0
   13.3830    4.2419   22.6861 C   0  0  0  0  0  0  0  0  0  0  0  0
    9.9690   -2.0511   22.8271 C   0  0  0  0  0  0  0  0  0  0  0  0
    8.7359   -2.6930   23.3148 N   0  0  0  0  0  0  0  0  0  0  0  0
    7.7683   -2.9054   22.2208 C   0  0  0  0  0  0  0  0  0  0  0  0
    6.9556   -1.6667   21.9028 C   0  0  0  0  0  0  0  0  0  0  0  0
    6.4824   -0.8460   22.9341 C   0  0  0  0  0  0  0  0  0  0  0  0
    5.7436    0.3031   22.6458 C   0  0  0  0  0  0  0  0  0  0  0  0
    5.4589    0.6570   21.3186 C   0  0  0  0  0  0  0  0  0  0  0  0
    4.7176    1.8097   21.0121 C   0  0  0  0  0  0  0  0  0  0  0  0
    4.4416    2.1489   19.6867 C   0  0  0  0  0  0  0  0  0  0  0  0
    4.9038    1.3413   18.6521 C   0  0  0  0  0  0  0  0  0  0  0  0
    5.6418    0.1920   18.9402 C   0  0  0  0  0  0  0  0  0  0  0  0
    5.9275   -0.1642   20.2682 C   0  0  0  0  0  0  0  0  0  0  0  0
    6.6694   -1.3182   20.5742 C   0  0  0  0  0  0  0  0  0  0  0  0
    9.0441   -3.9803   23.9694 C   0  0  0  0  0  0  0  0  0  0  0  0
    8.0114   -5.4216   26.4181 C   0  0  0  0  0  0  0  0  0  0  0  0
    7.0016   -5.8268   27.5201 C   0  0  0  0  0  0  0  0  0  0  0  0
  1  2  1  0
  2  3  1  0
  3  4  1  0
  4  5  1  0
  5  6  1  0
  7  6  1  6
  7  8  1  0
  8  9  1  0
  9 10  1  6
 10 11  2  0
 10 12  1  0
 12 13  1  0
 13 14  1  0
 14 15  1  0
 15 16  1  0
 16 17  1  0
 17 18  1  0
 18 19  1  0
 19 20  1  0
  9 21  1  0
 21 22  1  0
 22 23  1  0
 23 24  1  0
 24 25  2  0
 25 26  1  0
 26 27  2  0
 27 28  1  0
 28 29  2  0
 29 30  1  0
 30 31  2  0
 31 32  1  0
 32 33  2  0
 22 34  1  0
  5 35  1  0
 35 36  1  0
 36  2  1  0
 34  7  1  0
 20 15  1  0
 33 24  1  0
 32 27  1  0
M  END
