
     RDKit          3D

 32 34  0  0  0  0  0  0  0  0999 V2000
    6.6840   -1.1251   18.3366 C   0  0  0  0  0  0  0  0  0  0  0  0
    6.9863    0.2506   18.5199 O   0  0  0  0  0  0  0  0  0  0  0  0
    5.9887    1.0574   19.0084 C   0  0  0  0  0  0  0  0  0  0  0  0
    4.7793    1.3121   18.3550 C   0  0  0  0  0  0  0  0  0  0  0  0
    3.8200    2.1456   18.9387 C   0  0  0  0  0  0  0  0  0  0  0  0
    4.0601    2.7498   20.1770 C   0  0  0  0  0  0  0  0  0  0  0  0
    3.0282    3.6531   20.8117 C   0  0  0  0  0  0  0  0  0  0  0  0
    3.0511    4.9758   20.1869 N   0  0  0  0  0  0  0  0  0  0  0  0
    1.6971    5.4556   19.8710 C   0  0  0  0  0  0  0  0  0  0  0  0
    1.1350    4.8830   18.5449 C   0  0  0  0  0  0  0  0  0  0  0  0
    1.9036    5.3003   17.3495 N   0  0  0  0  0  0  0  0  0  0  0  0
    1.3748    4.6790   16.1233 C   0  0  0  0  0  0  0  0  0  0  0  0
    2.2021    5.0780   14.9028 C   0  0  0  0  0  0  0  0  0  0  0  0
    2.2573    6.5931   14.7556 C   0  0  0  0  0  0  0  0  0  0  0  0
    3.1381    6.9574   13.6972 O   0  0  0  0  0  0  0  0  0  0  0  0
    2.7449    7.2319   16.0486 C   0  0  0  0  0  0  0  0  0  0  0  0
    1.9053    6.7686   17.2354 C   0  0  0  0  0  0  0  0  0  0  0  0
    5.2726    2.4912   20.8338 C   0  0  0  0  0  0  0  0  0  0  0  0
    6.2259    1.6380   20.2678 C   0  0  0  0  0  0  0  0  0  0  0  0
    7.4275    1.3410   20.8625 O   0  0  0  0  0  0  0  0  0  0  0  0
    7.3706    0.4918   22.0134 C   0  0  0  0  0  0  0  0  0  0  0  0
    8.7412    0.5265   22.7088 C   0  0  2  0  0  0  0  0  0  0  0  0
    9.4441    1.6968   22.2674 O   0  0  0  0  0  0  0  0  0  0  0  0
    9.5552   -0.7620   22.4025 C   0  0  0  0  0  0  0  0  0  0  0  0
   10.7624   -1.0314   23.2317 N   0  0  0  0  0  0  0  0  0  0  0  0
   10.9738   -2.4760   23.3981 C   0  0  0  0  0  0  0  0  0  0  0  0
   11.3485   -2.8967   24.8247 C   0  0  0  0  0  0  0  0  0  0  0  0
   12.5911   -2.2790   25.4608 C   0  0  0  0  0  0  0  0  0  0  0  0
   13.7809   -2.1545   24.5160 C   0  0  0  0  0  0  0  0  0  0  0  0
   14.0869   -0.7224   24.0861 C   0  0  0  0  0  0  0  0  0  0  0  0
   12.9075    0.1849   23.7389 C   0  0  0  0  0  0  0  0  0  0  0  0
   11.9395   -0.3370   22.6759 C   0  0  0  0  0  0  0  0  0  0  0  0
  1  2  1  0
  2  3  1  0
  3  4  2  0
  4  5  1  0
  5  6  2  0
  6  7  1  0
  7  8  1  0
  8  9  1  0
  9 10  1  0
 10 11  1  0
 11 12  1  0
 12 13  1  0
 13 14  1  0
 14 15  1  0
 14 16  1  0
 16 17  1  0
  6 18  1  0
 18 19  2  0
 19 20  1  0
 20 21  1  0
 21 22  1  0
 22 23  1  6
 22 24  1  0
 24 25  1  0
 25 26  1  0
 26 27  1  0
 27 28  1  0
 28 29  1  0
 29 30  1  0
 30 31  1  0
 31 32  1  0
 19  3  1  0
 32 25  1  0
 17 11  1  0
M  END
