
     RDKit          3D

 67 69  0  0  0  0  0  0  0  0999 V2000
    5.5665    9.7520   21.9477 C   0  0  0  0  0  0  0  0  0  0  0  0
    6.3553    8.8107   22.8065 C   0  0  0  0  0  0  0  0  0  0  0  0
    7.3330    9.1326   23.4657 O   0  0  0  0  0  0  0  0  0  0  0  0
    5.8255    7.5574   22.7362 O   0  0  0  0  0  0  0  0  0  0  0  0
    4.8858    7.3425   21.6699 C   0  0  0  0  0  0  0  0  0  0  0  0
    4.4027    5.8912   21.6000 C   0  0  1  0  0  0  0  0  0  0  0  0
    5.5146    5.0050   21.3713 O   0  0  0  0  0  0  0  0  0  0  0  0
    5.4382    3.9164   22.3349 C   0  0  1  0  0  0  0  0  0  0  0  0
    5.8252    2.6212   21.5858 C   0  0  0  0  0  0  0  0  0  0  0  0
    4.9475    2.3965   20.4674 O   0  0  0  0  0  0  0  0  0  0  0  0
    5.2234    1.2595   19.7733 C   0  0  0  0  0  0  0  0  0  0  0  0
    4.2884    1.1265   18.6119 C   0  0  0  0  0  0  0  0  0  0  0  0
    6.0927    0.4455   20.0582 O   0  0  0  0  0  0  0  0  0  0  0  0
    6.3212    4.3084   23.4028 O   0  0  0  0  0  0  0  0  0  0  0  0
    7.2894    3.3540   23.8450 C   0  0  1  0  0  0  0  0  0  0  0  0
    8.2648    3.2308   22.8080 O   0  0  0  0  0  0  0  0  0  0  0  0
    9.5879    2.8636   23.1944 C   0  0  2  0  0  0  0  0  0  0  0  0
    9.6488    1.3903   23.6409 C   0  0  0  0  0  0  0  0  0  0  0  0
   10.4626    0.5553   22.8251 O   0  0  0  0  0  0  0  0  0  0  0  0
   10.1791   -0.8455   22.9113 C   0  0  2  0  0  0  0  0  0  0  0  0
    8.7929   -1.0894   22.7027 O   0  0  0  0  0  0  0  0  0  0  0  0
    8.4566   -2.4839   22.8068 C   0  0  2  0  0  0  0  0  0  0  0  0
    6.9949   -2.6872   22.3779 C   0  0  0  0  0  0  0  0  0  0  0  0
    6.8268   -3.8764   21.5946 O   0  0  0  0  0  0  0  0  0  0  0  0
    5.8388   -4.6958   22.0495 C   0  0  0  0  0  0  0  0  0  0  0  0
    6.3604   -6.0944   22.1976 C   0  0  0  0  0  0  0  0  0  0  0  0
    4.6877   -4.3597   22.2875 O   0  0  0  0  0  0  0  0  0  0  0  0
    8.7668   -2.9940   24.2231 C   0  0  2  0  0  0  0  0  0  0  0  0
    8.0425   -2.2143   25.2035 O   0  0  0  0  0  0  0  0  0  0  0  0
    7.3262   -2.8944   26.1359 C   0  0  0  0  0  0  0  0  0  0  0  0
    7.3777   -2.1710   27.4463 C   0  0  0  0  0  0  0  0  0  0  0  0
    6.7223   -3.9407   25.9490 O   0  0  0  0  0  0  0  0  0  0  0  0
   10.2658   -2.8038   24.4945 C   0  0  2  0  0  0  0  0  0  0  0  0
   10.5166   -3.2307   25.8526 O   0  0  0  0  0  0  0  0  0  0  0  0
   11.1303   -4.4312   26.0220 C   0  0  0  0  0  0  0  0  0  0  0  0
   10.1209   -5.4846   26.3659 C   0  0  0  0  0  0  0  0  0  0  0  0
   12.3292   -4.6359   25.8921 O   0  0  0  0  0  0  0  0  0  0  0  0
   10.6708   -1.3357   24.2923 C   0  0  1  0  0  0  0  0  0  0  0  0
   12.1134   -1.1993   24.2807 O   0  0  0  0  0  0  0  0  0  0  0  0
   12.6839   -0.5581   25.3331 C   0  0  0  0  0  0  0  0  0  0  0  0
   13.8469   -1.3470   25.8497 C   0  0  0  0  0  0  0  0  0  0  0  0
   12.3086    0.5033   25.8082 O   0  0  0  0  0  0  0  0  0  0  0  0
   10.1932    3.8731   24.1980 C   0  0  1  0  0  0  0  0  0  0  0  0
   11.0710    4.7525   23.4398 O   0  0  0  0  0  0  0  0  0  0  0  0
   12.3987    4.4527   23.4411 C   0  0  0  0  0  0  0  0  0  0  0  0
   13.1561    5.4706   22.6457 C   0  0  0  0  0  0  0  0  0  0  0  0
   12.9083    3.4911   23.9993 O   0  0  0  0  0  0  0  0  0  0  0  0
    9.1103    4.7299   24.8922 C   0  0  2  0  0  0  0  0  0  0  0  0
    9.6318    5.2085   26.1602 O   0  0  0  0  0  0  0  0  0  0  0  0
    9.7981    6.5541   26.2817 C   0  0  0  0  0  0  0  0  0  0  0  0
    9.3764    7.0049   27.6476 C   0  0  0  0  0  0  0  0  0  0  0  0
   10.2516    7.2967   25.4219 O   0  0  0  0  0  0  0  0  0  0  0  0
    7.9023    3.8417   25.1855 C   0  0  1  0  0  0  0  0  0  0  0  0
    6.9481    4.5462   26.0087 O   0  0  0  0  0  0  0  0  0  0  0  0
    6.1703    3.7410   26.7798 C   0  0  0  0  0  0  0  0  0  0  0  0
    5.6520    4.4950   27.9640 C   0  0  0  0  0  0  0  0  0  0  0  0
    5.9501    2.5611   26.5435 O   0  0  0  0  0  0  0  0  0  0  0  0
    3.9646    3.9304   22.7952 C   0  0  1  0  0  0  0  0  0  0  0  0
    3.7448    3.2896   24.0583 O   0  0  0  0  0  0  0  0  0  0  0  0
    2.4530    3.0191   24.3736 C   0  0  0  0  0  0  0  0  0  0  0  0
    2.3547    2.4327   25.7473 C   0  0  0  0  0  0  0  0  0  0  0  0
    1.4956    3.1967   23.6321 O   0  0  0  0  0  0  0  0  0  0  0  0
    3.7019    5.4279   22.8760 C   0  0  2  0  0  0  0  0  0  0  0  0
    2.2951    5.7239   22.8061 O   0  0  0  0  0  0  0  0  0  0  0  0
    1.8913    6.8594   23.4325 C   0  0  0  0  0  0  0  0  0  0  0  0
    0.4289    7.0836   23.1931 C   0  0  0  0  0  0  0  0  0  0  0  0
    2.6022    7.5964   24.0988 O   0  0  0  0  0  0  0  0  0  0  0  0
  1  2  1  0
  2  3  2  0
  2  4  1  0
  4  5  1  0
  6  5  1  1
  6  7  1  0
  7  8  1  0
  8  9  1  6
  9 10  1  0
 10 11  1  0
 11 12  1  0
 11 13  2  0
  8 14  1  0
 15 14  1  6
 15 16  1  0
 16 17  1  0
 17 18  1  1
 18 19  1  0
 20 19  1  1
 20 21  1  0
 21 22  1  0
 22 23  1  1
 23 24  1  0
 24 25  1  0
 25 26  1  0
 25 27  2  0
 22 28  1  0
 28 29  1  1
 29 30  1  0
 30 31  1  0
 30 32  2  0
 28 33  1  0
 33 34  1  1
 34 35  1  0
 35 36  1  0
 35 37  2  0
 33 38  1  0
 38 39  1  6
 39 40  1  0
 40 41  1  0
 40 42  2  0
 17 43  1  0
 43 44  1  6
 44 45  1  0
 45 46  1  0
 45 47  2  0
 43 48  1  0
 48 49  1  1
 49 50  1  0
 50 51  1  0
 50 52  2  0
 48 53  1  0
 53 54  1  6
 54 55  1  0
 55 56  1  0
 55 57  2  0
  8 58  1  0
 58 59  1  1
 59 60  1  0
 60 61  1  0
 60 62  2  0
 58 63  1  0
 63 64  1  6
 64 65  1  0
 65 66  1  0
 65 67  2  0
 63  6  1  0
 53 15  1  0
 38 20  1  0
M  END
