
     RDKit          3D

 40 42  0  0  0  0  0  0  0  0999 V2000
    3.0202    2.9468   18.8862 N   0  0  0  0  0  0  0  0  0  0  0  0
    3.7403    2.6088   20.1112 C   0  0  0  0  0  0  0  0  0  0  0  0
    4.2749    1.1801   20.0338 C   0  0  0  0  0  0  0  0  0  0  0  0
    5.4532    1.0600   19.0635 C   0  0  2  0  0  0  0  0  0  0  0  0
    4.9856    0.9726   17.7147 O   0  0  0  0  0  0  0  0  0  0  0  0
    6.3372   -0.1528   19.4201 C   0  0  0  0  0  0  0  0  0  0  0  0
    6.4072   -1.1732   18.7387 O   0  0  0  0  0  0  0  0  0  0  0  0
    7.0288    0.0225   20.6046 N   0  0  0  0  0  0  0  0  0  0  0  0
    7.9235   -1.0119   21.1214 C   0  0  2  0  0  0  0  0  0  0  0  0
    7.0934   -2.0533   21.8922 C   0  0  0  0  0  0  0  0  0  0  0  0
    7.9888   -3.1428   22.4993 C   0  0  2  0  0  0  0  0  0  0  0  0
    7.1896   -4.1634   23.1906 N   0  0  0  0  0  0  0  0  0  0  0  0
    9.0464   -2.5182   23.4403 C   0  0  2  0  0  0  0  0  0  0  0  0
    8.3977   -1.8011   24.5028 O   0  0  0  0  0  0  0  0  0  0  0  0
    8.6013   -2.3590   25.7939 C   0  0  2  0  0  0  0  0  0  0  0  0
    8.6609   -3.7814   25.6890 O   0  0  0  0  0  0  0  0  0  0  0  0
    8.9380   -4.4176   26.9487 C   0  0  2  0  0  0  0  0  0  0  0  0
    9.1109   -5.9287   26.6862 C   0  0  0  0  0  0  0  0  0  0  0  0
   10.2507   -6.2129   25.7997 N   0  0  0  0  0  0  0  0  0  0  0  0
    7.8052   -4.1366   27.9537 C   0  0  2  0  0  0  0  0  0  0  0  0
    6.5848   -4.7476   27.5045 O   0  0  0  0  0  0  0  0  0  0  0  0
    7.5827   -2.6185   28.0798 C   0  0  2  0  0  0  0  0  0  0  0  0
    6.3948   -2.3937   28.8614 O   0  0  0  0  0  0  0  0  0  0  0  0
    7.4248   -1.9509   26.7046 C   0  0  2  0  0  0  0  0  0  0  0  0
    6.1436   -2.3618   26.1700 O   0  0  0  0  0  0  0  0  0  0  0  0
    9.8999   -1.5226   22.6317 C   0  0  2  0  0  0  0  0  0  0  0  0
   10.9393   -1.0083   23.4722 O   0  0  0  0  0  0  0  0  0  0  0  0
    9.0672   -0.3918   21.9749 C   0  0  2  0  0  0  0  0  0  0  0  0
    8.4605    0.4877   22.9410 O   0  0  0  0  0  0  0  0  0  0  0  0
    8.8204    1.8669   22.8026 C   0  0  2  0  0  0  0  0  0  0  0  0
   10.1543    2.0322   23.2860 O   0  0  0  0  0  0  0  0  0  0  0  0
   10.6048    3.3935   23.2185 C   0  0  2  0  0  0  0  0  0  0  0  0
   12.0715    3.4088   23.6690 C   0  0  0  0  0  0  0  0  0  0  0  0
   12.9682    3.3501   22.5682 O   0  0  0  0  0  0  0  0  0  0  0  0
    9.7189    4.3225   24.0787 C   0  0  2  0  0  0  0  0  0  0  0  0
    9.8191    3.9983   25.4725 O   0  0  0  0  0  0  0  0  0  0  0  0
    8.2414    4.1929   23.6635 C   0  0  1  0  0  0  0  0  0  0  0  0
    7.9965    4.8538   22.3589 N   0  0  0  0  0  0  0  0  0  0  0  0
    7.8243    2.7052   23.6337 C   0  0  1  0  0  0  0  0  0  0  0  0
    6.4794    2.6072   23.1065 O   0  0  0  0  0  0  0  0  0  0  0  0
  1  2  1  0
  2  3  1  0
  3  4  1  0
  4  5  1  6
  4  6  1  0
  6  7  2  0
  6  8  1  0
  9  8  1  1
  9 10  1  0
 10 11  1  0
 11 12  1  1
 11 13  1  0
 13 14  1  1
 15 14  1  6
 15 16  1  0
 16 17  1  0
 17 18  1  6
 18 19  1  0
 17 20  1  0
 20 21  1  6
 20 22  1  0
 22 23  1  1
 22 24  1  0
 24 25  1  6
 13 26  1  0
 26 27  1  1
 26 28  1  0
 28 29  1  1
 30 29  1  1
 30 31  1  0
 31 32  1  0
 32 33  1  1
 33 34  1  0
 32 35  1  0
 35 36  1  1
 35 37  1  0
 37 38  1  6
 37 39  1  0
 39 40  1  6
 28  9  1  0
 39 30  1  0
 24 15  1  0
M  END
