
     RDKit          3D

 40 42  0  0  0  0  0  0  0  0999 V2000
    4.2891    1.8760   18.5502 N   0  0  0  0  0  0  0  0  0  0  0  0
    4.7056    0.6469   19.2346 C   0  0  0  0  0  0  0  0  0  0  0  0
    6.0414    0.1608   18.6747 C   0  0  0  0  0  0  0  0  0  0  0  0
    6.5096   -1.1372   19.3522 C   0  0  2  0  0  0  0  0  0  0  0  0
    5.7122   -2.2277   18.9050 O   0  0  0  0  0  0  0  0  0  0  0  0
    6.4351   -1.0085   20.8887 C   0  0  0  0  0  0  0  0  0  0  0  0
    5.6321   -1.6763   21.5380 O   0  0  0  0  0  0  0  0  0  0  0  0
    7.3195   -0.1229   21.4437 N   0  0  0  0  0  0  0  0  0  0  0  0
    7.3986    0.1341   22.8779 C   0  0  2  0  0  0  0  0  0  0  0  0
    6.2847    1.1054   23.3038 C   0  0  0  0  0  0  0  0  0  0  0  0
    6.5302    2.5519   22.8392 C   0  0  2  0  0  0  0  0  0  0  0  0
    6.3691    2.6502   21.3685 N   0  0  0  0  0  0  0  0  0  0  0  0
    7.9164    3.0522   23.3246 C   0  0  2  0  0  0  0  0  0  0  0  0
    8.1622    4.3665   22.7974 O   0  0  0  0  0  0  0  0  0  0  0  0
    7.4970    5.3937   23.5318 C   0  0  2  0  0  0  0  0  0  0  0  0
    7.0140    6.3850   22.6162 O   0  0  0  0  0  0  0  0  0  0  0  0
    6.3882    7.5123   23.2539 C   0  0  2  0  0  0  0  0  0  0  0  0
    5.9533    8.4737   22.1218 C   0  0  0  0  0  0  0  0  0  0  0  0
    6.3246    8.0526   20.7713 N   0  0  0  0  0  0  0  0  0  0  0  0
    7.3044    8.1874   24.3016 C   0  0  2  0  0  0  0  0  0  0  0  0
    8.3854    8.9079   23.6898 O   0  0  0  0  0  0  0  0  0  0  0  0
    7.8711    7.1356   25.2695 C   0  0  2  0  0  0  0  0  0  0  0  0
    8.8104    7.7224   26.1770 O   0  0  0  0  0  0  0  0  0  0  0  0
    8.5374    6.0050   24.4889 C   0  0  2  0  0  0  0  0  0  0  0  0
    9.6486    6.5163   23.7171 O   0  0  0  0  0  0  0  0  0  0  0  0
    9.0480    2.1127   22.8670 C   0  0  2  0  0  0  0  0  0  0  0  0
    9.1925    2.1428   21.4303 O   0  0  0  0  0  0  0  0  0  0  0  0
    8.7758    0.6749   23.3414 C   0  0  2  0  0  0  0  0  0  0  0  0
    9.8449   -0.1466   22.8450 O   0  0  0  0  0  0  0  0  0  0  0  0
   10.9566   -0.2170   23.7507 C   0  0  2  0  0  0  0  0  0  0  0  0
   12.1641   -0.2534   22.9954 O   0  0  0  0  0  0  0  0  0  0  0  0
   13.3452   -0.6868   23.6919 C   0  0  2  0  0  0  0  0  0  0  0  0
   13.8992   -1.9175   22.9533 C   0  0  0  0  0  0  0  0  0  0  0  0
   14.1546   -1.6075   21.5788 O   0  0  0  0  0  0  0  0  0  0  0  0
   13.1490   -0.8897   25.1941 C   0  0  2  0  0  0  0  0  0  0  0  0
   14.3178   -1.4035   25.8212 O   0  0  0  0  0  0  0  0  0  0  0  0
   11.9514   -1.7852   25.5284 C   0  0  2  0  0  0  0  0  0  0  0  0
   12.3503   -3.2280   25.5040 N   0  0  0  0  0  0  0  0  0  0  0  0
   10.7427   -1.4843   24.6172 C   0  0  2  0  0  0  0  0  0  0  0  0
   10.4755   -2.6297   23.7713 O   0  0  0  0  0  0  0  0  0  0  0  0
  1  2  1  0
  2  3  1  0
  3  4  1  0
  4  5  1  6
  4  6  1  0
  6  7  2  0
  6  8  1  0
  9  8  1  6
  9 10  1  0
 10 11  1  0
 11 12  1  6
 11 13  1  0
 13 14  1  6
 15 14  1  6
 15 16  1  0
 16 17  1  0
 17 18  1  6
 18 19  1  0
 17 20  1  0
 20 21  1  6
 20 22  1  0
 22 23  1  1
 22 24  1  0
 24 25  1  6
 13 26  1  0
 26 27  1  6
 26 28  1  0
 28 29  1  6
 30 29  1  6
 30 31  1  0
 31 32  1  0
 32 33  1  6
 33 34  1  0
 32 35  1  0
 35 36  1  6
 35 37  1  0
 37 38  1  6
 37 39  1  0
 39 40  1  6
 28  9  1  0
 39 30  1  0
 24 15  1  0
M  END
