
     RDKit          3D

 33 35  0  0  0  0  0  0  0  0999 V2000
    1.1496    4.9871   18.4106 C   0  0  0  0  0  0  0  0  0  0  0  0
    2.4581    4.3802   18.5980 N   0  0  0  0  0  0  0  0  0  0  0  0
    2.5806    3.5219   19.7939 C   0  0  2  0  0  0  0  0  0  0  0  0
    1.2474    2.8381   20.1324 C   0  0  0  0  0  0  0  0  0  0  0  0
    3.2008    4.2145   21.0433 C   0  0  2  0  0  0  0  0  0  0  0  0
    2.6901    5.6543   21.2055 C   0  0  0  0  0  0  0  0  0  0  0  0
    3.3955    6.3587   22.3643 C   0  0  0  0  0  0  0  0  0  0  0  0
    4.9144    6.2328   22.2541 C   0  0  2  0  0  0  0  0  0  0  0  0
    5.3928    7.1002   21.1515 N   0  0  0  0  0  0  0  0  0  0  0  0
    5.2908    4.7326   22.0545 C   0  0  2  0  0  0  0  0  0  0  0  0
    6.7011    4.6601   21.8538 O   0  0  0  0  0  0  0  0  0  0  0  0
    7.4561    4.0581   22.9299 C   0  0  2  0  0  0  0  0  0  0  0  0
    8.2887    5.2212   23.5382 C   0  0  2  0  0  0  0  0  0  0  0  0
    9.0333    5.9747   22.5096 N   0  0  0  0  0  0  0  0  0  0  0  0
    9.2447    4.7291   24.6290 C   0  0  0  0  0  0  0  0  0  0  0  0
   10.1563    3.5831   24.1750 C   0  0  2  0  0  0  0  0  0  0  0  0
   11.1555    4.0317   23.1884 N   0  0  0  0  0  0  0  0  0  0  0  0
    9.3143    2.4119   23.6232 C   0  0  2  0  0  0  0  0  0  0  0  0
   10.1530    1.3980   23.0362 O   0  0  0  0  0  0  0  0  0  0  0  0
   10.9908    0.6499   23.9215 C   0  0  2  0  0  0  0  0  0  0  0  0
   12.3351    1.1043   24.0401 O   0  0  0  0  0  0  0  0  0  0  0  0
   13.3296    0.1411   23.7096 C   0  0  0  0  0  0  0  0  0  0  0  0
   13.1909   -1.1839   24.4802 C   0  0  2  0  0  0  0  0  0  0  0  0
   13.7228   -1.0396   25.9078 C   0  0  0  0  0  0  0  0  0  0  0  0
   14.0404   -2.1581   23.8450 O   0  0  0  0  0  0  0  0  0  0  0  0
   11.7067   -1.6980   24.5130 C   0  0  2  0  0  0  0  0  0  0  0  0
   11.6548   -3.1417   24.1333 N   0  0  0  0  0  0  0  0  0  0  0  0
   11.3219   -4.0042   25.2648 C   0  0  0  0  0  0  0  0  0  0  0  0
   10.8234   -0.8511   23.5788 C   0  0  2  0  0  0  0  0  0  0  0  0
   11.1780   -1.1455   22.2116 O   0  0  0  0  0  0  0  0  0  0  0  0
    8.3402    2.8626   22.5096 C   0  0  1  0  0  0  0  0  0  0  0  0
    7.5064    1.7133   22.2310 O   0  0  0  0  0  0  0  0  0  0  0  0
    4.6304    4.2203   20.8964 O   0  0  0  0  0  0  0  0  0  0  0  0
  1  2  1  0
  2  3  1  0
  3  4  1  1
  3  5  1  0
  5  6  1  6
  6  7  1  0
  7  8  1  0
  8  9  1  6
  8 10  1  0
 10 11  1  6
 12 11  1  6
 12 13  1  0
 13 14  1  6
 13 15  1  0
 15 16  1  0
 16 17  1  6
 16 18  1  0
 18 19  1  6
 20 19  1  6
 20 21  1  0
 21 22  1  0
 22 23  1  0
 23 24  1  1
 23 25  1  0
 23 26  1  0
 26 27  1  6
 27 28  1  0
 26 29  1  0
 29 30  1  6
 18 31  1  0
 31 32  1  1
 10 33  1  0
 33  5  1  0
 31 12  1  0
 29 20  1  0
M  END
