
     RDKit          3D

 32 34  0  0  0  0  0  0  0  0999 V2000
    6.4609   -3.8581   28.1871 N   0  0  0  0  0  0  0  0  0  0  0  0
    6.8903   -3.5419   26.8182 C   0  0  0  0  0  0  0  0  0  0  0  0
    8.3643   -3.9278   26.5800 C   0  0  2  0  0  0  0  0  0  0  0  0
    8.7076   -3.6035   25.2271 O   0  0  0  0  0  0  0  0  0  0  0  0
   10.1076   -3.7094   24.9706 C   0  0  1  0  0  0  0  0  0  0  0  0
   10.8165   -2.5555   25.4295 O   0  0  0  0  0  0  0  0  0  0  0  0
   11.5722   -1.8410   24.4242 C   0  0  2  0  0  0  0  0  0  0  0  0
   13.0450   -2.2672   24.6510 C   0  0  2  0  0  0  0  0  0  0  0  0
   13.4680   -2.1191   26.0580 N   0  0  0  0  0  0  0  0  0  0  0  0
   13.9905   -1.5292   23.7074 C   0  0  0  0  0  0  0  0  0  0  0  0
   13.8734   -0.0150   23.8419 C   0  0  1  0  0  0  0  0  0  0  0  0
   14.7535    0.6124   22.8385 N   0  0  0  0  0  0  0  0  0  0  0  0
   12.4225    0.4777   23.6582 C   0  0  2  0  0  0  0  0  0  0  0  0
   12.4116    1.8583   24.0852 O   0  0  0  0  0  0  0  0  0  0  0  0
   12.0938    2.7906   23.0559 C   0  0  1  0  0  0  0  0  0  0  0  0
   10.7636    3.2928   23.2720 O   0  0  0  0  0  0  0  0  0  0  0  0
   10.7449    4.5060   24.0162 C   0  0  2  0  0  0  0  0  0  0  0  0
    9.3082    4.8264   24.4518 C   0  0  0  0  0  0  0  0  0  0  0  0
    9.1988    5.0547   25.8550 O   0  0  0  0  0  0  0  0  0  0  0  0
   11.3070    5.6372   23.1358 C   0  0  1  0  0  0  0  0  0  0  0  0
   11.6005    6.7826   23.9525 O   0  0  0  0  0  0  0  0  0  0  0  0
   12.5470    5.1759   22.3191 C   0  0  1  0  0  0  0  0  0  0  0  0
   13.5463    6.2774   22.2460 N   0  0  0  0  0  0  0  0  0  0  0  0
   13.1724    3.9132   22.9393 C   0  0  1  0  0  0  0  0  0  0  0  0
   13.7410    4.2743   24.2160 O   0  0  0  0  0  0  0  0  0  0  0  0
   11.3941   -0.3086   24.5027 C   0  0  1  0  0  0  0  0  0  0  0  0
   10.0921    0.0365   23.9906 O   0  0  0  0  0  0  0  0  0  0  0  0
   10.7397   -4.9908   25.6309 C   0  0  1  0  0  0  0  0  0  0  0  0
   11.4508   -4.7239   26.9096 N   0  0  0  0  0  0  0  0  0  0  0  0
    9.6436   -6.0247   25.8905 C   0  0  0  0  0  0  0  0  0  0  0  0
    8.5799   -5.4377   26.8309 C   0  0  1  0  0  0  0  0  0  0  0  0
    8.9936   -5.6305   28.1876 O   0  0  0  0  0  0  0  0  0  0  0  0
  1  2  1  0
  3  2  1  6
  3  4  1  0
  4  5  1  0
  5  6  1  1
  7  6  1  1
  7  8  1  0
  8  9  1  1
  8 10  1  0
 10 11  1  0
 11 12  1  6
 11 13  1  0
 13 14  1  1
 15 14  1  1
 15 16  1  0
 16 17  1  0
 17 18  1  6
 18 19  1  0
 17 20  1  0
 20 21  1  1
 20 22  1  0
 22 23  1  1
 22 24  1  0
 24 25  1  1
 13 26  1  0
 26 27  1  6
  5 28  1  0
 28 29  1  1
 28 30  1  0
 30 31  1  0
 31 32  1  1
 31  3  1  0
 26  7  1  0
 24 15  1  0
M  END
