
     RDKit          3D

 35 39  0  0  0  0  0  0  0  0999 V2000
    4.4681    2.7263   20.3065 C   0  0  0  0  0  0  0  0  0  0  0  0
    4.7443    1.8073   19.2564 O   0  0  0  0  0  0  0  0  0  0  0  0
    5.1066    0.5408   19.6213 C   0  0  0  0  0  0  0  0  0  0  0  0
    5.3472    0.3718   20.9871 C   0  0  0  0  0  0  0  0  0  0  0  0
    5.7240   -0.8748   21.4976 C   0  0  0  0  0  0  0  0  0  0  0  0
    5.8651   -1.9790   20.6469 C   0  0  0  0  0  0  0  0  0  0  0  0
    6.2487   -3.2883   21.1665 C   0  0  0  0  0  0  0  0  0  0  0  0
    5.7721   -4.4518   20.6908 N   0  0  0  0  0  0  0  0  0  0  0  0
    6.4170   -5.4151   21.4609 O   0  0  0  0  0  0  0  0  0  0  0  0
    7.2166   -4.7453   22.3415 C   0  0  0  0  0  0  0  0  0  0  0  0
    8.0380   -5.5375   23.3131 C   0  0  0  0  0  0  0  0  0  0  0  0
    8.4087   -4.8448   24.5643 N   0  0  0  0  0  0  0  0  0  0  0  0
    9.2570   -3.6600   24.3033 C   0  0  0  0  0  0  0  0  0  0  0  0
    9.7175   -2.9830   25.6159 C   0  0  0  0  0  0  0  0  0  0  0  0
   10.4542   -3.8719   26.5423 N   0  0  0  0  0  0  0  0  0  0  0  0
   11.7983   -4.2511   26.0537 C   0  0  0  0  0  0  0  0  0  0  0  0
   12.8054   -3.1023   25.8156 C   0  0  1  0  0  0  0  0  0  0  0  0
   14.1195   -3.4713   26.2540 O   0  0  0  0  0  0  0  0  0  0  0  0
   12.8445   -2.6214   24.3588 C   0  0  0  0  0  0  0  0  0  0  0  0
   13.0079   -1.1928   24.3118 O   0  0  0  0  0  0  0  0  0  0  0  0
   12.7502   -0.6169   23.0284 C   0  0  0  0  0  0  0  0  0  0  0  0
   12.4632    0.8631   23.1177 C   0  0  0  0  0  0  0  0  0  0  0  0
   11.1289    1.3257   23.2134 C   0  0  0  0  0  0  0  0  0  0  0  0
   10.8448    2.6929   23.3032 C   0  0  0  0  0  0  0  0  0  0  0  0
   11.9073    3.5705   23.2935 C   0  0  0  0  0  0  0  0  0  0  0  0
   13.2065    3.1319   23.1928 C   0  0  0  0  0  0  0  0  0  0  0  0
   13.5183    1.7909   23.0965 C   0  0  0  0  0  0  0  0  0  0  0  0
   14.1023    4.1544   23.2081 O   0  0  0  0  0  0  0  0  0  0  0  0
   13.2178    5.2876   23.3412 C   0  0  0  0  0  0  0  0  0  0  0  0
   11.8222    4.9252   23.3838 O   0  0  0  0  0  0  0  0  0  0  0  0
    9.6159   -5.0710   26.7691 C   0  0  0  0  0  0  0  0  0  0  0  0
    9.1106   -5.7669   25.4801 C   0  0  0  0  0  0  0  0  0  0  0  0
    7.1483   -3.4369   22.2042 N   0  0  0  0  0  0  0  0  0  0  0  0
    5.6208   -1.8021   19.2768 C   0  0  0  0  0  0  0  0  0  0  0  0
    5.2440   -0.5524   18.7669 C   0  0  0  0  0  0  0  0  0  0  0  0
  1  2  1  0
  2  3  1  0
  3  4  2  0
  4  5  1  0
  5  6  2  0
  6  7  1  0
  7  8  2  0
  8  9  1  0
  9 10  1  0
 10 11  1  0
 11 12  1  0
 12 13  1  0
 13 14  1  0
 14 15  1  0
 15 16  1  0
 16 17  1  0
 17 18  1  6
 17 19  1  0
 19 20  1  0
 20 21  1  0
 21 22  1  0
 22 23  2  0
 23 24  1  0
 24 25  2  0
 25 26  1  0
 26 27  2  0
 26 28  1  0
 28 29  1  0
 29 30  1  0
 15 31  1  0
 31 32  1  0
 10 33  2  0
  6 34  1  0
 34 35  2  0
 35  3  1  0
 33  7  1  0
 32 12  1  0
 27 22  1  0
 30 25  1  0
M  END
