
     RDKit          3D

 32 35  0  0  0  0  0  0  0  0999 V2000
   10.9412   -1.8867   22.5834 O   0  0  0  0  0  0  0  0  0  0  0  0
   10.1182   -0.9806   22.4308 C   0  0  0  0  0  0  0  0  0  0  0  0
    8.8263   -1.1305   21.6169 C   0  0  0  0  0  0  0  0  0  0  0  0
    7.6053   -0.9416   22.4185 N   0  0  0  0  0  0  0  0  0  0  0  0
    6.7955    0.2257   22.0204 C   0  0  0  0  0  0  0  0  0  0  0  0
    6.3199    0.2158   20.6069 C   0  0  0  0  0  0  0  0  0  0  0  0
    6.8435   -0.2897   19.4334 C   0  0  0  0  0  0  0  0  0  0  0  0
    5.9241    0.0426   18.4099 C   0  0  0  0  0  0  0  0  0  0  0  0
    4.9056    0.7379   19.0187 C   0  0  0  0  0  0  0  0  0  0  0  0
    5.1398    0.8520   20.3510 O   0  0  0  0  0  0  0  0  0  0  0  0
    6.8108   -2.1586   22.6565 C   0  0  2  0  0  0  0  0  0  0  0  0
    7.6106   -3.1338   23.5466 C   0  0  0  0  0  0  0  0  0  0  0  0
    6.7326   -4.3685   23.6967 C   0  0  0  0  0  0  0  0  0  0  0  0
    6.0037   -4.6087   22.0871 S   0  0  0  0  0  0  0  0  0  0  0  0
    6.8040   -5.5752   21.3600 O   0  0  0  0  0  0  0  0  0  0  0  0
    4.5717   -4.7546   22.2412 O   0  0  0  0  0  0  0  0  0  0  0  0
    6.3597   -2.9824   21.4388 C   0  0  0  0  0  0  0  0  0  0  0  0
   10.3024    0.3941   23.0853 C   0  0  0  0  0  0  0  0  0  0  0  0
   11.5341    0.5358   23.9023 N   0  0  0  0  0  0  0  0  0  0  0  0
   11.3729   -0.0878   25.2402 C   0  0  0  0  0  0  0  0  0  0  0  0
   12.4440   -1.0805   25.5512 C   0  0  0  0  0  0  0  0  0  0  0  0
   13.8002   -0.9721   25.7846 C   0  0  0  0  0  0  0  0  0  0  0  0
   14.2710   -2.2865   26.0219 C   0  0  0  0  0  0  0  0  0  0  0  0
   13.1752   -3.1120   25.9198 C   0  0  0  0  0  0  0  0  0  0  0  0
   12.0614   -2.3885   25.6321 O   0  0  0  0  0  0  0  0  0  0  0  0
   12.0437    1.9224   24.0212 C   0  0  2  0  0  0  0  0  0  0  0  0
   11.0909    3.0185   23.4927 C   0  0  0  0  0  0  0  0  0  0  0  0
   11.8765    4.3222   23.5364 C   0  0  0  0  0  0  0  0  0  0  0  0
   13.5279    3.8829   23.0411 S   0  0  0  0  0  0  0  0  0  0  0  0
   14.4545    4.3340   24.0576 O   0  0  0  0  0  0  0  0  0  0  0  0
   13.6981    4.2131   21.6414 O   0  0  0  0  0  0  0  0  0  0  0  0
   13.3273    2.1196   23.1936 C   0  0  0  0  0  0  0  0  0  0  0  0
  1  2  2  0
  2  3  1  0
  3  4  1  0
  4  5  1  0
  5  6  1  0
  6  7  2  0
  7  8  1  0
  8  9  2  0
  9 10  1  0
 11  4  1  6
 11 12  1  0
 12 13  1  0
 13 14  1  0
 14 15  2  0
 14 16  2  0
 14 17  1  0
  2 18  1  0
 18 19  1  0
 19 20  1  0
 20 21  1  0
 21 22  2  0
 22 23  1  0
 23 24  2  0
 24 25  1  0
 26 19  1  6
 26 27  1  0
 27 28  1  0
 28 29  1  0
 29 30  2  0
 29 31  2  0
 29 32  1  0
 10  6  1  0
 17 11  1  0
 25 21  1  0
 32 26  1  0
M  END
