
     RDKit          3D

 32 34  0  0  0  0  0  0  0  0999 V2000
    5.0273   -4.2948   24.0470 N   0  0  0  0  0  0  0  0  0  0  0  0
    6.4154   -4.6627   23.7364 C   0  0  0  0  0  0  0  0  0  0  0  0
    7.4425   -4.1504   24.7705 C   0  0  2  0  0  0  0  0  0  0  0  0
    8.6795   -3.9455   24.0763 O   0  0  0  0  0  0  0  0  0  0  0  0
    9.7101   -3.4545   24.9401 C   0  0  2  0  0  0  0  0  0  0  0  0
   10.8973   -3.2784   24.1553 O   0  0  0  0  0  0  0  0  0  0  0  0
   11.6799   -2.1373   24.5623 C   0  0  1  0  0  0  0  0  0  0  0  0
   13.1694   -2.5589   24.7291 C   0  0  2  0  0  0  0  0  0  0  0  0
   13.4044   -3.0654   26.0997 N   0  0  0  0  0  0  0  0  0  0  0  0
   14.1532   -1.4202   24.4001 C   0  0  0  0  0  0  0  0  0  0  0  0
   13.5638   -0.0306   24.6479 C   0  0  2  0  0  0  0  0  0  0  0  0
   13.2830    0.1414   26.0866 N   0  0  0  0  0  0  0  0  0  0  0  0
   12.3169    0.2100   23.7421 C   0  0  2  0  0  0  0  0  0  0  0  0
   11.4244    1.1670   24.3512 O   0  0  0  0  0  0  0  0  0  0  0  0
   11.2084    2.3401   23.5594 C   0  0  2  0  0  0  0  0  0  0  0  0
   12.2316    3.3024   23.8152 O   0  0  0  0  0  0  0  0  0  0  0  0
   12.0291    4.5217   23.0706 C   0  0  2  0  0  0  0  0  0  0  0  0
   13.2225    5.4403   23.3550 C   0  0  0  0  0  0  0  0  0  0  0  0
   14.3040    4.6690   23.8848 O   0  0  0  0  0  0  0  0  0  0  0  0
   10.7089    5.1929   23.4678 C   0  0  1  0  0  0  0  0  0  0  0  0
   10.4713    6.3651   22.6857 O   0  0  0  0  0  0  0  0  0  0  0  0
    9.5382    4.2134   23.2554 C   0  0  2  0  0  0  0  0  0  0  0  0
    8.2851    4.8609   23.7170 N   0  0  0  0  0  0  0  0  0  0  0  0
    9.8197    2.8864   23.9701 C   0  0  2  0  0  0  0  0  0  0  0  0
    9.7689    3.0978   25.3970 O   0  0  0  0  0  0  0  0  0  0  0  0
   11.5172   -1.0795   23.4602 C   0  0  1  0  0  0  0  0  0  0  0  0
   11.9429   -1.6446   22.2055 O   0  0  0  0  0  0  0  0  0  0  0  0
   10.0125   -4.4664   26.0850 C   0  0  2  0  0  0  0  0  0  0  0  0
   10.5516   -5.7508   25.5812 N   0  0  0  0  0  0  0  0  0  0  0  0
    8.7338   -4.7273   26.8740 C   0  0  0  0  0  0  0  0  0  0  0  0
    7.5870   -5.1378   25.9523 C   0  0  1  0  0  0  0  0  0  0  0  0
    6.3876   -5.1838   26.7317 O   0  0  0  0  0  0  0  0  0  0  0  0
  1  2  1  0
  3  2  1  6
  3  4  1  0
  4  5  1  0
  5  6  1  6
  7  6  1  6
  7  8  1  0
  8  9  1  1
  8 10  1  0
 10 11  1  0
 11 12  1  1
 11 13  1  0
 13 14  1  1
 15 14  1  1
 15 16  1  0
 16 17  1  0
 17 18  1  1
 18 19  1  0
 17 20  1  0
 20 21  1  6
 20 22  1  0
 22 23  1  1
 22 24  1  0
 24 25  1  1
 13 26  1  0
 26 27  1  6
  5 28  1  0
 28 29  1  6
 28 30  1  0
 30 31  1  0
 31 32  1  1
 31  3  1  0
 26  7  1  0
 24 15  1  0
M  END
