
     RDKit          3D

 32 34  0  0  0  0  0  0  0  0999 V2000
    8.8479   -4.3449   28.7419 N   0  0  0  0  0  0  0  0  0  0  0  0
    9.5803   -5.1581   27.7626 C   0  0  0  0  0  0  0  0  0  0  0  0
    9.2979   -4.7173   26.3096 C   0  0  2  0  0  0  0  0  0  0  0  0
   10.0791   -3.5386   26.0478 O   0  0  0  0  0  0  0  0  0  0  0  0
    9.9695   -3.1212   24.6890 C   0  0  2  0  0  0  0  0  0  0  0  0
   10.7668   -1.9533   24.4767 O   0  0  0  0  0  0  0  0  0  0  0  0
   12.0255   -2.2032   23.8402 C   0  0  2  0  0  0  0  0  0  0  0  0
   13.2005   -1.9720   24.8267 C   0  0  1  0  0  0  0  0  0  0  0  0
   14.4879   -2.4255   24.2565 N   0  0  0  0  0  0  0  0  0  0  0  0
   13.2653   -0.4878   25.2312 C   0  0  0  0  0  0  0  0  0  0  0  0
   13.3877    0.4742   24.0336 C   0  0  1  0  0  0  0  0  0  0  0  0
   14.7534    0.3792   23.4617 N   0  0  0  0  0  0  0  0  0  0  0  0
   12.2656    0.2248   22.9808 C   0  0  2  0  0  0  0  0  0  0  0  0
   11.0583    0.8046   23.5037 O   0  0  0  0  0  0  0  0  0  0  0  0
   11.1214    2.2291   23.6527 C   0  0  1  0  0  0  0  0  0  0  0  0
   11.9401    2.7782   22.6270 O   0  0  0  0  0  0  0  0  0  0  0  0
   11.9918    4.2180   22.6174 C   0  0  2  0  0  0  0  0  0  0  0  0
   13.4460    4.6281   22.9084 C   0  0  0  0  0  0  0  0  0  0  0  0
   13.9320    3.9378   24.0671 O   0  0  0  0  0  0  0  0  0  0  0  0
   11.0205    4.9341   23.5731 C   0  0  1  0  0  0  0  0  0  0  0  0
   10.8783    6.3104   23.1805 O   0  0  0  0  0  0  0  0  0  0  0  0
    9.6240    4.2727   23.6549 C   0  0  1  0  0  0  0  0  0  0  0  0
    8.6618    4.9454   22.7365 N   0  0  0  0  0  0  0  0  0  0  0  0
    9.6858    2.7494   23.4461 C   0  0  1  0  0  0  0  0  0  0  0  0
    9.2291    2.4322   22.1063 O   0  0  0  0  0  0  0  0  0  0  0  0
   12.1417   -1.2734   22.6052 C   0  0  1  0  0  0  0  0  0  0  0  0
   13.2630   -1.6361   21.7735 O   0  0  0  0  0  0  0  0  0  0  0  0
    8.4946   -2.7382   24.3646 C   0  0  1  0  0  0  0  0  0  0  0  0
    8.3343   -2.2659   22.9772 N   0  0  0  0  0  0  0  0  0  0  0  0
    7.5764   -3.9295   24.6327 C   0  0  0  0  0  0  0  0  0  0  0  0
    7.7965   -4.4631   26.0489 C   0  0  1  0  0  0  0  0  0  0  0  0
    7.0429   -5.6652   26.2003 O   0  0  0  0  0  0  0  0  0  0  0  0
  1  2  1  0
  3  2  1  1
  3  4  1  0
  4  5  1  0
  5  6  1  1
  7  6  1  1
  7  8  1  0
  8  9  1  6
  8 10  1  0
 10 11  1  0
 11 12  1  6
 11 13  1  0
 13 14  1  1
 15 14  1  6
 15 16  1  0
 16 17  1  0
 17 18  1  1
 18 19  1  0
 17 20  1  0
 20 21  1  6
 20 22  1  0
 22 23  1  6
 22 24  1  0
 24 25  1  6
 13 26  1  0
 26 27  1  1
  5 28  1  0
 28 29  1  6
 28 30  1  0
 30 31  1  0
 31 32  1  6
 31  3  1  0
 26  7  1  0
 24 15  1  0
M  END
