
     RDKit          3D

 36 38  0  0  0  0  0  0  0  0999 V2000
   14.1234   -1.0626   22.4881 O   0  0  0  0  0  0  0  0  0  0  0  0
   13.3986   -0.6227   23.3721 C   0  0  0  0  0  0  0  0  0  0  0  0
   13.2072   -1.2372   24.5932 N   0  0  0  0  0  0  0  0  0  0  0  0
   13.8594   -2.5009   24.8930 C   0  0  0  0  0  0  0  0  0  0  0  0
   13.1482   -3.2215   26.0341 C   0  0  0  0  0  0  0  0  0  0  0  0
   12.0483   -4.1682   25.5399 C   0  0  0  0  0  0  0  0  0  0  0  0
   10.8355   -4.1682   26.3698 N   0  0  0  0  0  0  0  0  0  0  0  0
   10.2761   -5.5327   26.4613 C   0  0  0  0  0  0  0  0  0  0  0  0
    8.9535   -5.5862   27.2623 C   0  0  0  0  0  0  0  0  0  0  0  0
    7.8964   -4.6687   26.7798 N   0  0  0  0  0  0  0  0  0  0  0  0
    7.3118   -5.1446   25.5176 C   0  0  0  0  0  0  0  0  0  0  0  0
    5.7790   -5.2521   25.5222 C   0  0  0  0  0  0  0  0  0  0  0  0
    5.1037   -5.0021   24.1746 C   0  0  0  0  0  0  0  0  0  0  0  0
    5.4534   -3.7146   23.6045 N   0  0  0  0  0  0  0  0  0  0  0  0
    5.5597   -3.5396   22.2407 C   0  0  0  0  0  0  0  0  0  0  0  0
    5.3994   -4.4338   21.4189 O   0  0  0  0  0  0  0  0  0  0  0  0
    5.9247   -2.1712   21.7788 C   0  0  0  0  0  0  0  0  0  0  0  0
    6.0954   -1.1078   22.6777 C   0  0  0  0  0  0  0  0  0  0  0  0
    6.4308    0.1646   22.2082 C   0  0  0  0  0  0  0  0  0  0  0  0
    6.5905    0.3856   20.8395 C   0  0  0  0  0  0  0  0  0  0  0  0
    6.4064   -0.6747   19.9411 C   0  0  0  0  0  0  0  0  0  0  0  0
    6.5695   -0.4402   18.5015 N   0  0  0  0  0  4  0  0  0  0  0  0
    6.3704   -1.3962   17.7382 O   0  0  0  0  0  0  0  0  0  0  0  0
    6.8905    0.6983   18.1342 O   0  0  0  0  0  1  0  0  0  0  0  0
    6.0696   -1.9524   20.4025 C   0  0  0  0  0  0  0  0  0  0  0  0
    8.4872   -3.3160   26.6767 C   0  0  0  0  0  0  0  0  0  0  0  0
    9.8070   -3.2348   25.8699 C   0  0  0  0  0  0  0  0  0  0  0  0
   12.6849    0.6673   23.1674 C   0  0  0  0  0  0  0  0  0  0  0  0
   11.2982    0.7144   22.9605 C   0  0  0  0  0  0  0  0  0  0  0  0
   10.6580    1.9391   22.7555 C   0  0  0  0  0  0  0  0  0  0  0  0
   11.3979    3.1222   22.7496 C   0  0  0  0  0  0  0  0  0  0  0  0
   12.7860    3.0725   22.9425 C   0  0  0  0  0  0  0  0  0  0  0  0
   13.5631    4.3184   22.9321 N   0  0  0  0  0  4  0  0  0  0  0  0
   14.0026    4.7299   24.0157 O   0  0  0  0  0  0  0  0  0  0  0  0
   13.7404    4.8795   21.8426 O   0  0  0  0  0  1  0  0  0  0  0  0
   13.4360    1.8493   23.1468 C   0  0  0  0  0  0  0  0  0  0  0  0
  1  2  2  0
  2  3  1  0
  3  4  1  0
  4  5  1  0
  5  6  1  0
  6  7  1  0
  7  8  1  0
  8  9  1  0
  9 10  1  0
 10 11  1  0
 11 12  1  0
 12 13  1  0
 13 14  1  0
 14 15  1  0
 15 16  2  0
 15 17  1  0
 17 18  2  0
 18 19  1  0
 19 20  2  0
 20 21  1  0
 21 22  1  0
 22 23  2  0
 22 24  1  0
 21 25  2  0
 10 26  1  0
 26 27  1  0
  2 28  1  0
 28 29  2  0
 29 30  1  0
 30 31  2  0
 31 32  1  0
 32 33  1  0
 33 34  2  0
 33 35  1  0
 32 36  2  0
 27  7  1  0
 36 28  1  0
 25 17  1  0
M  CHG  4  22   1  24  -1  33   1  35  -1
M  END
