
     RDKit          3D

 33 36  0  0  0  0  0  0  0  0999 V2000
    9.9434   -5.8331   25.8393 C   0  0  0  0  0  0  0  0  0  0  0  0
    8.5400   -5.4470   26.3334 C   0  0  0  0  0  0  0  0  0  0  0  0
    8.2570   -5.8301   27.7234 N   0  0  0  0  0  0  0  0  0  0  0  0
    6.8158   -5.9893   28.0175 C   0  0  0  0  0  0  0  0  0  0  0  0
    6.0444   -4.6622   28.1155 C   0  0  0  0  0  0  0  0  0  0  0  0
    6.6332   -3.7829   29.0813 O   0  0  0  0  0  0  0  0  0  0  0  0
    8.0092   -3.5363   28.7729 C   0  0  0  0  0  0  0  0  0  0  0  0
    8.8107   -4.8465   28.6847 C   0  0  0  0  0  0  0  0  0  0  0  0
   10.9894   -4.7376   26.1083 C   0  0  0  0  0  0  0  0  0  0  0  0
   11.2154   -3.7673   25.0307 N   0  0  0  0  0  0  0  0  0  0  0  0
   12.2363   -2.7772   25.3454 C   0  0  0  0  0  0  0  0  0  0  0  0
   12.2326   -1.6790   24.3707 N   0  0  0  0  0  0  0  0  0  0  0  0
   13.5800   -1.0988   24.2572 C   0  0  0  0  0  0  0  0  0  0  0  0
   13.6673    0.0617   23.2528 C   0  0  0  0  0  0  0  0  0  0  0  0
   12.5462    1.0834   23.5026 C   0  0  0  0  0  0  0  0  0  0  0  0
   12.7366    2.3441   22.7649 N   0  0  0  0  0  0  0  0  0  0  0  0
   13.7681    3.2082   23.3836 C   0  0  0  0  0  0  0  0  0  0  0  0
   13.5608    4.6980   23.0618 C   0  0  0  0  0  0  0  0  0  0  0  0
   12.3190    5.2114   23.5647 O   0  0  0  0  0  0  0  0  0  0  0  0
   11.2888    4.2163   23.6338 C   0  0  0  0  0  0  0  0  0  0  0  0
   11.4655    3.0857   22.6076 C   0  0  0  0  0  0  0  0  0  0  0  0
   11.7072   -2.1657   23.1037 C   0  0  0  0  0  0  0  0  0  0  0  0
   10.2877   -2.4790   23.2570 N   0  0  0  0  0  0  0  0  0  0  0  0
    9.4449   -1.2849   23.0630 C   0  0  0  0  0  0  0  0  0  0  0  0
    8.7035   -1.2692   21.7156 C   0  0  0  0  0  0  0  0  0  0  0  0
    7.2233   -0.8775   21.8351 C   0  0  0  0  0  0  0  0  0  0  0  0
    6.7195   -0.1488   20.6578 N   0  0  0  0  0  0  0  0  0  0  0  0
    6.7778   -1.0065   19.4545 C   0  0  0  0  0  0  0  0  0  0  0  0
    6.2134   -0.2827   18.2210 C   0  0  0  0  0  0  0  0  0  0  0  0
    4.8587    0.1348   18.4382 O   0  0  0  0  0  0  0  0  0  0  0  0
    4.7998    1.0073   19.5736 C   0  0  0  0  0  0  0  0  0  0  0  0
    5.3257    0.3127   20.8410 C   0  0  0  0  0  0  0  0  0  0  0  0
   10.0125   -3.1251   24.5407 C   0  0  0  0  0  0  0  0  0  0  0  0
  1  2  1  0
  2  3  1  0
  3  4  1  0
  4  5  1  0
  5  6  1  0
  6  7  1  0
  7  8  1  0
  1  9  1  0
  9 10  1  0
 10 11  1  0
 11 12  1  0
 12 13  1  0
 13 14  1  0
 14 15  1  0
 15 16  1  0
 16 17  1  0
 17 18  1  0
 18 19  1  0
 19 20  1  0
 20 21  1  0
 12 22  1  0
 22 23  1  0
 23 24  1  0
 24 25  1  0
 25 26  1  0
 26 27  1  0
 27 28  1  0
 28 29  1  0
 29 30  1  0
 30 31  1  0
 31 32  1  0
 23 33  1  0
  8  3  1  0
 33 10  1  0
 21 16  1  0
 32 27  1  0
M  END
