
     RDKit          3D

 32 38  0  0  0  0  0  0  0  0999 V2000
   13.0830    5.0322   23.3070 C   0  0  0  0  0  0  0  0  0  0  0  0
   12.7208    3.7626   23.8491 O   0  0  0  0  0  0  0  0  0  0  0  0
   11.4056    3.3893   23.7955 C   0  0  0  0  0  0  0  0  0  0  0  0
   10.3302    4.2035   24.1709 C   0  0  0  0  0  0  0  0  0  0  0  0
    9.0000    3.7453   24.0803 C   0  0  0  0  0  0  0  0  0  0  0  0
    7.8586    4.6498   24.5131 C   0  0  0  0  0  0  0  0  0  0  0  0
    7.1815    5.5085   23.4516 N   0  0  0  0  0  4  0  0  0  0  0  0
    7.8371    6.8256   23.2544 C   0  0  0  0  0  0  0  0  0  0  0  0
    7.1269    7.6207   22.2851 N   0  0  0  0  0  0  0  0  0  0  0  0
    7.0951    6.9278   21.0062 C   0  0  0  0  0  0  0  0  0  0  0  0
    6.4142    5.6531   21.1651 N   0  0  0  0  0  0  0  0  0  0  0  0
    5.0520    5.8886   21.6146 C   0  0  0  0  0  0  0  0  0  0  0  0
    5.0843    6.5819   22.8917 N   0  0  0  0  0  0  0  0  0  0  0  0
    5.7644    7.8564   22.7354 C   0  0  0  0  0  0  0  0  0  0  0  0
    5.7689    5.7755   23.8673 C   0  0  0  0  0  0  0  0  0  0  0  0
    7.1158    4.8342   22.1245 C   0  0  0  0  0  0  0  0  0  0  0  0
    8.7615    2.4394   23.6178 C   0  0  0  0  0  0  0  0  0  0  0  0
    7.4461    2.0670   23.5622 O   0  0  0  0  0  0  0  0  0  0  0  0
    7.1376    0.7511   23.1036 C   0  0  0  0  0  0  0  0  0  0  0  0
    9.8369    1.6248   23.2433 C   0  0  0  0  0  0  0  0  0  0  0  0
   11.1670    2.0834   23.3334 C   0  0  0  0  0  0  0  0  0  0  0  0
   12.3083    1.1798   22.8984 C   0  0  0  0  0  0  0  0  0  0  0  0
   12.6769    0.0054   23.7969 N   0  0  0  0  0  4  0  0  0  0  0  0
   12.1139   -1.2517   23.2122 C   0  0  0  0  0  0  0  0  0  0  0  0
   12.4399   -2.3938   24.0245 N   0  0  0  0  0  0  0  0  0  0  0  0
   13.8832   -2.5448   24.1051 C   0  0  0  0  0  0  0  0  0  0  0  0
   14.4544   -1.3527   24.7101 N   0  0  0  0  0  0  0  0  0  0  0  0
   13.9100   -1.1844   26.0477 C   0  0  0  0  0  0  0  0  0  0  0  0
   12.4652   -1.0329   25.9653 N   0  0  0  0  0  0  0  0  0  0  0  0
   11.8935   -2.2253   25.3603 C   0  0  0  0  0  0  0  0  0  0  0  0
   12.1394    0.1271   25.1754 C   0  0  0  0  0  0  0  0  0  0  0  0
   14.1496   -0.1954   23.9033 C   0  0  0  0  0  0  0  0  0  0  0  0
  1  2  1  0
  2  3  1  0
  3  4  2  0
  4  5  1  0
  5  6  1  0
  6  7  1  0
  7  8  1  0
  8  9  1  0
  9 10  1  0
 10 11  1  0
 11 12  1  0
 12 13  1  0
 13 14  1  0
 13 15  1  0
 11 16  1  0
  5 17  2  0
 17 18  1  0
 18 19  1  0
 17 20  1  0
 20 21  2  0
 21 22  1  0
 22 23  1  0
 23 24  1  0
 24 25  1  0
 25 26  1  0
 26 27  1  0
 27 28  1  0
 28 29  1  0
 29 30  1  0
 29 31  1  0
 27 32  1  0
 21  3  1  0
 31 23  1  0
 15  7  1  0
 32 23  1  0
 16  7  1  0
 30 25  1  0
 14  9  1  0
M  CHG  2   7   1  23   1
M  END
