
     RDKit          3D

 36 38  0  0  0  0  0  0  0  0999 V2000
    6.0641   -4.4815   21.4427 C   0  0  0  0  0  0  0  0  0  0  0  0
    5.9048   -3.0625   21.4700 O   0  0  0  0  0  0  0  0  0  0  0  0
    5.7473   -2.5019   20.2453 C   0  0  0  0  0  0  0  0  0  0  0  0
    5.7535   -3.0978   19.1797 O   0  0  0  0  0  0  0  0  0  0  0  0
    5.5625   -1.0296   20.3592 C   0  0  0  0  0  0  0  0  0  0  0  0
    5.0874   -0.2446   19.3033 C   0  0  0  0  0  0  0  0  0  0  0  0
    4.9310    1.1392   19.4624 C   0  0  0  0  0  0  0  0  0  0  0  0
    5.2451    1.7567   20.6745 C   0  0  0  0  0  0  0  0  0  0  0  0
    5.1126    3.1398   20.9146 N   0  0  0  0  0  0  0  0  0  0  0  0
    4.7041    3.7594   22.0868 C   0  0  0  0  0  0  0  0  0  0  0  0
    4.3833    3.2016   23.1292 O   0  0  0  0  0  0  0  0  0  0  0  0
    4.6941    5.2729   21.9378 C   0  0  0  0  0  0  0  0  0  0  0  0
    5.9881    5.7821   21.2952 C   0  0  0  0  0  0  0  0  0  0  0  0
    7.1727    5.8678   22.1618 N   0  0  0  0  0  0  0  0  0  0  0  0
    8.1024    6.9473   21.7904 C   0  0  0  0  0  0  0  0  0  0  0  0
    9.2769    7.0614   22.7930 C   0  0  0  0  0  0  0  0  0  0  0  0
   10.0037    5.7879   22.9346 N   0  0  0  0  0  0  0  0  0  0  0  0
   11.1749    5.8736   23.8210 C   0  0  0  0  0  0  0  0  0  0  0  0
   12.5480    5.6645   23.1745 C   0  0  0  0  0  0  0  0  0  0  0  0
   13.2057    4.3801   23.6536 C   0  0  0  0  0  0  0  0  0  0  0  0
   14.3307    4.3598   24.1374 O   0  0  0  0  0  0  0  0  0  0  0  0
   12.3701    3.2884   23.4657 N   0  0  0  0  0  0  0  0  0  0  0  0
   12.6304    1.9405   23.7850 C   0  0  0  0  0  0  0  0  0  0  0  0
   11.7120    1.2953   24.6231 C   0  0  0  0  0  0  0  0  0  0  0  0
   11.8920   -0.0444   24.9845 C   0  0  0  0  0  0  0  0  0  0  0  0
   12.9965   -0.7617   24.5116 C   0  0  0  0  0  0  0  0  0  0  0  0
   13.1415   -2.1845   24.9232 C   0  0  0  0  0  0  0  0  0  0  0  0
   12.1923   -2.9212   25.1415 O   0  0  0  0  0  0  0  0  0  0  0  0
   14.4504   -2.5271   25.0136 O   0  0  0  0  0  0  0  0  0  0  0  0
   14.8879   -2.8042   26.3447 C   0  0  0  0  0  0  0  0  0  0  0  0
   13.9165   -0.1193   23.6758 C   0  0  0  0  0  0  0  0  0  0  0  0
   13.7324    1.2231   23.3163 C   0  0  0  0  0  0  0  0  0  0  0  0
    9.0694    4.7100   23.3009 C   0  0  0  0  0  0  0  0  0  0  0  0
    7.9013    4.5952   22.2928 C   0  0  0  0  0  0  0  0  0  0  0  0
    5.7203    0.9680   21.7300 C   0  0  0  0  0  0  0  0  0  0  0  0
    5.8789   -0.4137   21.5752 C   0  0  0  0  0  0  0  0  0  0  0  0
  1  2  1  0
  2  3  1  0
  3  4  2  0
  3  5  1  0
  5  6  2  0
  6  7  1  0
  7  8  2  0
  8  9  1  0
  9 10  1  0
 10 11  2  0
 10 12  1  0
 12 13  1  0
 13 14  1  0
 14 15  1  0
 15 16  1  0
 16 17  1  0
 17 18  1  0
 18 19  1  0
 19 20  1  0
 20 21  2  0
 20 22  1  0
 22 23  1  0
 23 24  2  0
 24 25  1  0
 25 26  2  0
 26 27  1  0
 27 28  2  0
 27 29  1  0
 29 30  1  0
 26 31  1  0
 31 32  2  0
 17 33  1  0
 33 34  1  0
  8 35  1  0
 35 36  2  0
 36  5  1  0
 34 14  1  0
 32 23  1  0
M  END
