
     RDKit          3D

 34 38  0  0  0  0  0  0  0  0999 V2000
    7.0518    5.9772   23.3789 C   0  0  0  0  0  0  0  0  0  0  0  0
    8.2311    6.6502   23.8052 O   0  0  0  0  0  0  0  0  0  0  0  0
    9.4156    5.9962   23.6062 C   0  0  0  0  0  0  0  0  0  0  0  0
   10.5544    6.7472   23.9156 C   0  0  0  0  0  0  0  0  0  0  0  0
   11.8306    6.1966   23.7809 C   0  0  0  0  0  0  0  0  0  0  0  0
   11.9611    4.8763   23.3481 C   0  0  0  0  0  0  0  0  0  0  0  0
   13.5732    4.1359   23.2193 S   0  0  0  0  0  0  0  0  0  0  0  0
   13.8067    3.8469   21.8227 O   0  0  0  0  0  0  0  0  0  0  0  0
   14.4939    4.9320   24.0015 O   0  0  0  0  0  0  0  0  0  0  0  0
   13.3668    2.6735   24.0063 N   0  0  0  0  0  0  0  0  0  0  0  0
   13.7179    1.4233   23.3138 C   0  0  0  0  0  0  0  0  0  0  0  0
   13.6437    0.2565   24.3295 C   0  0  1  0  0  0  0  0  0  0  0  0
   12.2193    0.1011   24.9075 C   0  0  0  0  0  0  0  0  0  0  0  0
   11.8358   -1.3899   24.9291 C   0  0  2  0  0  0  0  0  0  0  0  0
   12.9612   -2.1316   25.6783 C   0  0  0  0  0  0  0  0  0  0  0  0
   14.2722   -2.0070   24.8809 C   0  0  0  0  0  0  0  0  0  0  0  0
   14.1402   -1.0427   23.7615 N   0  0  0  0  0  0  0  0  0  0  0  0
   13.1478   -1.5830   22.7967 C   0  0  0  0  0  0  0  0  0  0  0  0
   11.8131   -1.9525   23.4841 C   0  0  2  0  0  0  0  0  0  0  0  0
   10.5934   -1.4820   22.6644 C   0  0  0  0  0  0  0  0  0  0  0  0
    9.3164   -1.7073   23.3656 N   0  0  0  0  0  0  0  0  0  0  0  0
    8.4253   -2.6017   22.5846 C   0  0  0  0  0  0  0  0  0  0  0  0
    7.7927   -1.9726   21.3195 C   0  0  0  0  0  0  0  0  0  0  0  0
    7.0919   -0.7159   21.6608 N   0  0  0  0  0  0  0  0  0  0  0  0
    6.4980   -0.1331   20.5193 C   0  0  0  0  0  0  0  0  0  0  0  0
    5.1473    0.2227   20.5662 C   0  0  0  0  0  0  0  0  0  0  0  0
    4.5355    0.7823   19.4464 C   0  0  0  0  0  0  0  0  0  0  0  0
    5.2817    0.9767   18.2962 C   0  0  0  0  0  0  0  0  0  0  0  0
    6.6171    0.6190   18.3275 C   0  0  0  0  0  0  0  0  0  0  0  0
    7.2321    0.0804   19.4048 N   0  0  0  0  0  0  0  0  0  0  0  0
    7.9506    0.2344   22.3969 C   0  0  0  0  0  0  0  0  0  0  0  0
    8.5698   -0.4513   23.6388 C   0  0  0  0  0  0  0  0  0  0  0  0
   10.8331    4.1192   23.0210 C   0  0  0  0  0  0  0  0  0  0  0  0
    9.5595    4.6815   23.1552 C   0  0  0  0  0  0  0  0  0  0  0  0
  1  2  1  0
  2  3  1  0
  3  4  2  0
  4  5  1  0
  5  6  2  0
  6  7  1  0
  7  8  2  0
  7  9  2  0
  7 10  1  0
 10 11  1  0
 12 11  1  6
 12 13  1  0
 14 13  1  6
 14 15  1  0
 15 16  1  0
 16 17  1  0
 17 18  1  0
 18 19  1  0
 19 20  1  6
 20 21  1  0
 21 22  1  0
 22 23  1  0
 23 24  1  0
 24 25  1  0
 25 26  2  0
 26 27  1  0
 27 28  2  0
 28 29  1  0
 29 30  2  0
 24 31  1  0
 31 32  1  0
  6 33  1  0
 33 34  2  0
 34  3  1  0
 17 12  1  0
 32 21  1  0
 19 14  1  0
 30 25  1  0
M  END
