
     RDKit          3D

 30 32  0  0  0  0  0  0  0  0999 V2000
    4.9151    9.1703   19.2614 N   0  0  0  0  0  0  0  0  0  0  0  0
    4.8520    9.2341   20.7235 C   0  0  0  0  0  0  0  0  0  0  0  0
    6.0402    8.5405   21.4243 C   0  0  0  0  0  0  0  0  0  0  0  0
    6.1905    7.1397   20.9997 N   0  0  0  0  0  0  0  0  0  0  0  0
    7.2375    6.4421   21.7732 C   0  0  0  0  0  0  0  0  0  0  0  0
    6.8636    4.9777   22.0984 C   0  0  0  0  0  0  0  0  0  0  0  0
    8.0476    4.1205   21.9827 N   0  0  0  0  0  0  0  0  0  0  0  0
    8.4924    3.6261   23.2824 C   0  0  0  0  0  0  0  0  0  0  0  0
    9.7520    2.7708   23.1548 C   0  0  0  0  0  0  0  0  0  0  0  0
    9.6356    1.4017   22.7566 C   0  0  0  0  0  0  0  0  0  0  0  0
    8.4047    0.8240   22.3438 C   0  0  0  0  0  0  0  0  0  0  0  0
    8.2880   -0.5063   21.9430 C   0  0  0  0  0  0  0  0  0  0  0  0
    9.4073   -1.3104   21.9405 C   0  0  0  0  0  0  0  0  0  0  0  0
   10.6311   -0.7754   22.3394 C   0  0  0  0  0  0  0  0  0  0  0  0
   10.7860    0.5748   22.7571 C   0  0  0  0  0  0  0  0  0  0  0  0
   12.0431    1.1237   23.1614 C   0  0  0  0  0  0  0  0  0  0  0  0
   13.2627    0.2106   23.2882 C   0  0  0  0  0  0  0  0  0  0  0  0
   13.3645   -0.3507   24.6360 N   0  0  0  0  0  0  0  0  0  0  0  0
   14.1552   -1.5877   24.6643 C   0  0  0  0  0  0  0  0  0  0  0  0
   14.1197   -2.3122   26.0318 C   0  0  0  0  0  0  0  0  0  0  0  0
   13.4026   -3.6000   26.0223 N   0  0  0  0  0  0  0  0  0  0  0  0
   11.9888   -3.4415   25.6309 C   0  0  0  0  0  0  0  0  0  0  0  0
   11.1644   -4.6874   26.0256 C   0  0  0  0  0  0  0  0  0  0  0  0
   11.1915   -4.9334   27.4712 N   0  0  0  0  0  0  0  0  0  0  0  0
   12.1804    2.5217   23.4272 C   0  0  0  0  0  0  0  0  0  0  0  0
   13.4374    3.1320   23.6869 C   0  0  0  0  0  0  0  0  0  0  0  0
   13.5781    4.4943   23.9443 C   0  0  0  0  0  0  0  0  0  0  0  0
   12.4591    5.3010   23.9348 C   0  0  0  0  0  0  0  0  0  0  0  0
   11.2116    4.7358   23.6703 C   0  0  0  0  0  0  0  0  0  0  0  0
   11.0310    3.3492   23.4207 C   0  0  0  0  0  0  0  0  0  0  0  0
  1  2  1  0
  2  3  1  0
  3  4  1  0
  4  5  1  0
  5  6  1  0
  6  7  1  0
  7  8  1  0
  8  9  1  0
  9 10  2  0
 10 11  1  0
 11 12  2  0
 12 13  1  0
 13 14  2  0
 14 15  1  0
 15 16  2  0
 16 17  1  0
 17 18  1  0
 18 19  1  0
 19 20  1  0
 20 21  1  0
 21 22  1  0
 22 23  1  0
 23 24  1  0
 16 25  1  0
 25 26  2  0
 26 27  1  0
 27 28  2  0
 28 29  1  0
 29 30  2  0
 30  9  1  0
 15 10  1  0
 30 25  1  0
M  END
