
     RDKit          3D

 35 38  0  0  0  0  0  0  0  0999 V2000
    2.3047    4.8294   20.5481 C   0  0  0  0  0  0  0  0  0  0  0  0
    3.0672    3.9800   21.3970 O   0  0  0  0  0  0  0  0  0  0  0  0
    3.6691    2.9008   20.8094 C   0  0  0  0  0  0  0  0  0  0  0  0
    3.5261    2.5030   19.4802 C   0  0  0  0  0  0  0  0  0  0  0  0
    4.2049    1.3743   19.0052 C   0  0  0  0  0  0  0  0  0  0  0  0
    5.0323    0.6281   19.8535 C   0  0  0  0  0  0  0  0  0  0  0  0
    5.7852   -0.5716   19.3349 C   0  0  0  0  0  0  0  0  0  0  0  0
    7.2989   -0.3787   19.4477 C   0  0  0  0  0  0  0  0  0  0  0  0
    7.8908   -1.2454   20.4485 N   0  0  0  0  0  0  0  0  0  0  0  0
    8.7963   -0.7746   21.3781 C   0  0  0  0  0  0  0  0  0  0  0  0
    9.1557    0.3952   21.4314 O   0  0  0  0  0  0  0  0  0  0  0  0
    9.2772   -1.8643   22.3203 C   0  0  0  0  0  0  0  0  0  0  0  0
   10.7026   -1.6316   22.8250 C   0  0  0  0  0  0  0  0  0  0  0  0
   10.7715   -1.2787   24.3353 C   0  0  1  0  0  0  0  0  0  0  0  0
   10.6134   -2.5083   25.2550 C   0  0  0  0  0  0  0  0  0  0  0  0
   11.7372   -3.4302   25.1064 N   0  0  0  0  0  0  0  0  0  0  0  0
   11.5251   -4.7310   25.7615 C   0  0  0  0  0  0  0  0  0  0  0  0
   10.1392   -5.0074   26.3077 C   0  0  0  0  0  0  0  0  0  0  0  0
    9.8864   -4.9368   27.6859 C   0  0  0  0  0  0  0  0  0  0  0  0
    8.6085   -5.1845   28.1904 C   0  0  0  0  0  0  0  0  0  0  0  0
    7.5689   -5.5107   27.3230 C   0  0  0  0  0  0  0  0  0  0  0  0
    7.8065   -5.5905   25.9520 C   0  0  0  0  0  0  0  0  0  0  0  0
    9.0838   -5.3418   25.4474 C   0  0  0  0  0  0  0  0  0  0  0  0
   12.9931   -2.7881   25.4932 C   0  0  0  0  0  0  0  0  0  0  0  0
   13.2690   -1.5277   24.6674 C   0  0  0  0  0  0  0  0  0  0  0  0
   12.0887   -0.5277   24.7192 C   0  0  1  0  0  0  0  0  0  0  0  0
   12.3110    0.7004   23.9033 N   0  0  0  0  0  0  0  0  0  0  0  0
   13.5827    1.3879   24.2249 C   0  0  0  0  0  0  0  0  0  0  0  0
   13.7847    2.7129   23.4517 C   0  0  0  0  0  0  0  0  0  0  0  0
   12.6715    3.6564   23.6572 N   0  0  0  0  0  0  0  0  0  0  0  0
   12.8720    4.8691   22.8683 C   0  0  0  0  0  0  0  0  0  0  0  0
   11.4177    2.9853   23.2741 C   0  0  0  0  0  0  0  0  0  0  0  0
   11.1999    1.6709   24.0597 C   0  0  0  0  0  0  0  0  0  0  0  0
    5.1769    1.0337   21.1844 C   0  0  0  0  0  0  0  0  0  0  0  0
    4.4990    2.1616   21.6550 C   0  0  0  0  0  0  0  0  0  0  0  0
  1  2  1  0
  2  3  1  0
  3  4  2  0
  4  5  1  0
  5  6  2  0
  6  7  1  0
  7  8  1  0
  8  9  1  0
  9 10  1  0
 10 11  2  0
 10 12  1  0
 12 13  1  0
 14 13  1  6
 14 15  1  0
 15 16  1  0
 16 17  1  0
 17 18  1  0
 18 19  2  0
 19 20  1  0
 20 21  2  0
 21 22  1  0
 22 23  2  0
 16 24  1  0
 24 25  1  0
 25 26  1  0
 26 27  1  6
 27 28  1  0
 28 29  1  0
 29 30  1  0
 30 31  1  0
 30 32  1  0
 32 33  1  0
  6 34  1  0
 34 35  2  0
 35  3  1  0
 26 14  1  0
 33 27  1  0
 23 18  1  0
M  END
