
     RDKit          3D

 35 37  0  0  0  0  0  0  0  0999 V2000
   10.5232    6.2813   23.5533 C   0  0  0  0  0  0  0  0  0  0  0  0
   11.6983    5.7957   22.6951 C   0  0  0  0  0  0  0  0  0  0  0  0
   13.0161    6.3557   23.2508 C   0  0  0  0  0  0  0  0  0  0  0  0
   11.7727    4.3319   22.4956 N   0  0  0  0  0  0  0  0  0  0  0  0
   12.8344    3.9040   21.5773 C   0  0  0  0  0  0  0  0  0  0  0  0
   11.8648    3.5559   23.7472 C   0  0  0  0  0  0  0  0  0  0  0  0
   11.9237    2.0098   23.6268 C   0  0  2  0  0  0  0  0  0  0  0  0
   11.2598    1.4626   24.7813 O   0  0  0  0  0  0  0  0  0  0  0  0
   13.3840    1.4883   23.5309 C   0  0  0  0  0  0  0  0  0  0  0  0
   13.6425    0.0639   23.8186 N   0  0  0  0  0  0  0  0  0  0  0  0
   13.8881   -0.2332   25.2348 C   0  0  0  0  0  0  0  0  0  0  0  0
   14.2336   -1.7268   25.4488 C   0  0  0  0  0  0  0  0  0  0  0  0
   13.2127   -2.6687   24.9422 N   0  0  0  0  0  0  0  0  0  0  0  0
   11.9888   -2.6148   25.7705 C   0  0  0  0  0  0  0  0  0  0  0  0
   10.8882   -3.5130   25.2858 C   0  0  0  0  0  0  0  0  0  0  0  0
    9.9005   -3.2337   24.4524 N   0  0  0  0  0  0  0  0  0  0  0  0
    9.2167   -4.4347   24.3354 C   0  0  0  0  0  0  0  0  0  0  0  0
    8.0267   -4.6137   23.5166 C   0  0  0  0  0  0  0  0  0  0  0  0
    7.5704   -5.7136   23.2275 O   0  0  0  0  0  0  0  0  0  0  0  0
    7.4924   -3.4190   23.1026 N   0  0  0  0  0  0  0  0  0  0  0  0
    6.3157   -3.3216   22.2830 C   0  0  0  0  0  0  0  0  0  0  0  0
    6.1120   -1.9090   21.7978 C   0  0  0  0  0  0  0  0  0  0  0  0
    5.8337   -0.8789   22.7058 C   0  0  0  0  0  0  0  0  0  0  0  0
    5.6171    0.4224   22.2533 C   0  0  0  0  0  0  0  0  0  0  0  0
    5.6776    0.7094   20.8878 C   0  0  0  0  0  0  0  0  0  0  0  0
    5.9487   -0.3046   19.9592 C   0  0  0  0  0  0  0  0  0  0  0  0
    5.9865   -0.0135   18.4787 C   0  0  0  0  0  0  0  0  0  0  0  0
    6.0800   -1.1464   17.7253 F   0  0  0  0  0  0  0  0  0  0  0  0
    7.0465    0.7639   18.1189 F   0  0  0  0  0  0  0  0  0  0  0  0
    4.8798    0.6438   18.0257 F   0  0  0  0  0  0  0  0  0  0  0  0
    6.1546   -1.6137   20.4258 C   0  0  0  0  0  0  0  0  0  0  0  0
    9.8421   -5.3908   25.0996 C   0  0  0  0  0  0  0  0  0  0  0  0
   10.9197   -4.8217   25.7033 O   0  0  0  0  0  0  0  0  0  0  0  0
   12.9485   -2.3324   23.5235 C   0  0  0  0  0  0  0  0  0  0  0  0
   12.6294   -0.8388   23.2499 C   0  0  0  0  0  0  0  0  0  0  0  0
  1  2  1  0
  2  3  1  0
  2  4  1  0
  4  5  1  0
  4  6  1  0
  6  7  1  0
  7  8  1  1
  7  9  1  0
  9 10  1  0
 10 11  1  0
 11 12  1  0
 12 13  1  0
 13 14  1  0
 14 15  1  0
 15 16  2  0
 16 17  1  0
 17 18  1  0
 18 19  2  0
 18 20  1  0
 20 21  1  0
 21 22  1  0
 22 23  2  0
 23 24  1  0
 24 25  2  0
 25 26  1  0
 26 27  1  0
 27 28  1  0
 27 29  1  0
 27 30  1  0
 26 31  2  0
 17 32  2  0
 32 33  1  0
 13 34  1  0
 34 35  1  0
 35 10  1  0
 33 15  1  0
 31 22  1  0
M  END
