
     RDKit          3D

 32 35  0  0  0  0  0  0  0  0999 V2000
    8.1468    1.7230   22.0565 O   0  0  0  0  0  0  0  0  0  0  0  0
    8.8852    0.9074   22.6174 C   0  0  0  0  0  0  0  0  0  0  0  0
    8.9378   -0.5646   22.1933 C   0  0  0  0  0  0  0  0  0  0  0  0
    7.6434   -0.9900   21.6247 N   0  0  0  0  0  0  0  0  0  0  0  0
    7.6464   -1.0015   20.1478 C   0  0  0  0  0  0  0  0  0  0  0  0
    6.8731    0.1765   19.5226 C   0  0  2  0  0  0  0  0  0  0  0  0
    5.4454    0.2769   20.0342 C   0  0  0  0  0  0  0  0  0  0  0  0
    4.7986    1.1102   18.9586 C   0  0  0  0  0  0  0  0  0  0  0  0
    5.4742    0.5999   17.7040 C   0  0  0  0  0  0  0  0  0  0  0  0
    6.7371    0.0403   18.0942 O   0  0  0  0  0  0  0  0  0  0  0  0
    7.0492   -2.1908   22.2206 C   0  0  2  0  0  0  0  0  0  0  0  0
    8.0417   -3.3696   22.3263 C   0  0  0  0  0  0  0  0  0  0  0  0
    7.2467   -4.5122   22.9387 C   0  0  0  0  0  0  0  0  0  0  0  0
    5.6281   -4.3985   22.1907 S   0  0  0  0  0  0  0  0  0  0  0  0
    5.5648   -5.3203   21.0750 O   0  0  0  0  0  0  0  0  0  0  0  0
    4.6326   -4.3913   23.2443 O   0  0  0  0  0  0  0  0  0  0  0  0
    5.7943   -2.7419   21.5391 C   0  0  0  0  0  0  0  0  0  0  0  0
    9.7276    1.2347   23.8526 C   0  0  0  0  0  0  0  0  0  0  0  0
   11.1862    1.3075   23.6386 N   0  0  0  0  0  0  0  0  0  0  0  0
   12.0210    0.6763   24.6798 C   0  0  0  0  0  0  0  0  0  0  0  0
   13.0045   -0.4256   24.2018 C   0  0  2  0  0  0  0  0  0  0  0  0
   12.3750   -1.8151   24.2350 C   0  0  0  0  0  0  0  0  0  0  0  0
   12.8007   -2.3464   25.5812 C   0  0  0  0  0  0  0  0  0  0  0  0
   14.1840   -1.7580   25.7219 C   0  0  0  0  0  0  0  0  0  0  0  0
   14.1519   -0.4796   25.0751 O   0  0  0  0  0  0  0  0  0  0  0  0
   11.6485    2.6062   23.1342 C   0  0  1  0  0  0  0  0  0  0  0  0
   11.1235    3.8873   23.8091 C   0  0  0  0  0  0  0  0  0  0  0  0
   11.8683    5.0383   23.1405 C   0  0  0  0  0  0  0  0  0  0  0  0
   13.5270    4.4339   22.8801 S   0  0  0  0  0  0  0  0  0  0  0  0
   13.8589    4.5864   21.4773 O   0  0  0  0  0  0  0  0  0  0  0  0
   14.3857    4.9390   23.9301 O   0  0  0  0  0  0  0  0  0  0  0  0
   13.1792    2.7135   23.2013 C   0  0  0  0  0  0  0  0  0  0  0  0
  1  2  2  0
  2  3  1  0
  3  4  1  0
  4  5  1  0
  6  5  1  1
  6  7  1  0
  7  8  1  0
  8  9  1  0
  9 10  1  0
 11  4  1  6
 11 12  1  0
 12 13  1  0
 13 14  1  0
 14 15  2  0
 14 16  2  0
 14 17  1  0
  2 18  1  0
 18 19  1  0
 19 20  1  0
 21 20  1  1
 21 22  1  0
 22 23  1  0
 23 24  1  0
 24 25  1  0
 26 19  1  1
 26 27  1  0
 27 28  1  0
 28 29  1  0
 29 30  2  0
 29 31  2  0
 29 32  1  0
 10  6  1  0
 17 11  1  0
 25 21  1  0
 32 26  1  0
M  END
