
     RDKit          3D

 36 39  0  0  0  0  0  0  0  0999 V2000
    6.0313   -3.0203   21.1636 C   0  0  0  0  0  0  0  0  0  0  0  0
    5.5268   -4.3431   21.2870 O   0  0  0  0  0  0  0  0  0  0  0  0
    5.1924   -4.7612   22.5462 C   0  0  0  0  0  0  0  0  0  0  0  0
    5.4303   -3.8244   23.5536 C   0  0  0  0  0  0  0  0  0  0  0  0
    5.1362   -4.1219   24.8860 C   0  0  0  0  0  0  0  0  0  0  0  0
    4.6088   -5.3717   25.2367 C   0  0  0  0  0  0  0  0  0  0  0  0
    4.2699   -5.6900   26.6814 C   0  0  0  0  0  0  0  0  0  0  0  0
    5.4433   -6.1106   27.4642 N   0  0  0  0  0  0  0  0  0  0  0  0
    5.1745   -7.3160   28.2376 C   0  0  0  0  0  0  0  0  0  0  0  0
    6.0229   -5.0073   28.2513 C   0  0  0  0  0  0  0  0  0  0  0  0
    7.5083   -4.5965   28.0988 C   0  0  1  0  0  0  0  0  0  0  0  0
    7.7770   -3.3823   28.8232 O   0  0  0  0  0  0  0  0  0  0  0  0
    8.5460   -5.6465   28.5007 C   0  0  0  0  0  0  0  0  0  0  0  0
    9.6919   -5.4799   27.4946 C   0  0  0  0  0  0  0  0  0  0  0  0
    9.3273   -4.3126   26.6807 N   0  0  0  0  0  0  0  0  0  0  0  0
    9.9222   -4.3351   25.3401 C   0  0  0  0  0  0  0  0  0  0  0  0
   10.8845   -3.1912   25.1062 C   0  0  0  0  0  0  0  0  0  0  0  0
   10.4142   -1.9293   24.7277 C   0  0  0  0  0  0  0  0  0  0  0  0
   11.3032   -0.8694   24.5332 C   0  0  0  0  0  0  0  0  0  0  0  0
   12.6761   -1.0569   24.7127 C   0  0  0  0  0  0  0  0  0  0  0  0
   13.6180   -0.0723   24.5647 O   0  0  0  0  0  0  0  0  0  0  0  0
   13.5465    0.7626   23.4091 C   0  0  0  0  0  0  0  0  0  0  0  0
   12.8663    2.0881   23.8044 C   0  0  0  0  0  0  0  0  0  0  0  0
   12.4908    2.9700   22.6770 N   0  0  0  0  0  0  0  0  0  0  0  0
   11.1108    3.4834   22.8483 C   0  0  0  0  0  0  0  0  0  0  0  0
   10.9745    4.5881   23.9141 C   0  0  0  0  0  0  0  0  0  0  0  0
   11.8784    5.6734   23.6753 O   0  0  0  0  0  0  0  0  0  0  0  0
   13.2322    5.2004   23.6106 C   0  0  0  0  0  0  0  0  0  0  0  0
   13.3844    4.1390   22.5104 C   0  0  0  0  0  0  0  0  0  0  0  0
   13.1640   -2.3226   25.0909 C   0  0  0  0  0  0  0  0  0  0  0  0
   14.5270   -2.4239   25.2339 O   0  0  0  0  0  0  0  0  0  0  0  0
   15.0270   -2.7817   26.5137 C   0  0  0  0  0  0  0  0  0  0  0  0
   12.2655   -3.3774   25.2852 C   0  0  0  0  0  0  0  0  0  0  0  0
    7.8560   -4.3416   26.6221 C   0  0  0  0  0  0  0  0  0  0  0  0
    4.3657   -6.3068   24.2210 C   0  0  0  0  0  0  0  0  0  0  0  0
    4.6565   -6.0043   22.8849 C   0  0  0  0  0  0  0  0  0  0  0  0
  1  2  1  0
  2  3  1  0
  3  4  2  0
  4  5  1  0
  5  6  2  0
  6  7  1  0
  7  8  1  0
  8  9  1  0
  8 10  1  0
 10 11  1  0
 11 12  1  1
 11 13  1  0
 13 14  1  0
 14 15  1  0
 15 16  1  0
 16 17  1  0
 17 18  2  0
 18 19  1  0
 19 20  2  0
 20 21  1  0
 21 22  1  0
 22 23  1  0
 23 24  1  0
 24 25  1  0
 25 26  1  0
 26 27  1  0
 27 28  1  0
 28 29  1  0
 20 30  1  0
 30 31  1  0
 31 32  1  0
 30 33  2  0
 15 34  1  0
  6 35  1  0
 35 36  2  0
 36  3  1  0
 34 11  1  0
 33 17  1  0
 29 24  1  0
M  END
