
     RDKit          3D

 32 34  0  0  0  0  0  0  0  0999 V2000
    7.4546   -6.1926   22.5103 N   0  0  0  0  0  0  0  0  0  0  0  0
    6.1503   -6.2634   21.8373 C   0  0  0  0  0  0  0  0  0  0  0  0
    5.1030   -5.3345   22.4923 C   0  0  2  0  0  0  0  0  0  0  0  0
    5.7455   -4.4061   23.4005 O   0  0  0  0  0  0  0  0  0  0  0  0
    5.7783   -4.8859   24.7418 C   0  0  1  0  0  0  0  0  0  0  0  0
    6.5588   -4.0169   25.5690 O   0  0  0  0  0  0  0  0  0  0  0  0
    7.8676   -4.5299   25.9032 C   0  0  1  0  0  0  0  0  0  0  0  0
    9.0077   -3.7582   25.1819 C   0  0  1  0  0  0  0  0  0  0  0  0
    8.5760   -2.4026   24.9425 O   0  0  0  0  0  0  0  0  0  0  0  0
   10.3252   -3.6872   26.0007 C   0  0  2  0  0  0  0  0  0  0  0  0
   11.5086   -3.6034   25.1763 O   0  0  0  0  0  0  0  0  0  0  0  0
   11.9038   -2.2577   24.8716 C   0  0  2  0  0  0  0  0  0  0  0  0
   12.0482   -2.1706   23.4500 O   0  0  0  0  0  0  0  0  0  0  0  0
   12.4838   -0.8810   22.9893 C   0  0  1  0  0  0  0  0  0  0  0  0
   11.3401    0.1447   23.0608 C   0  0  0  0  0  0  0  0  0  0  0  0
   10.2539   -0.2976   22.2368 O   0  0  0  0  0  0  0  0  0  0  0  0
   13.8085   -0.4531   23.6515 C   0  0  1  0  0  0  0  0  0  0  0  0
   14.1805    0.8864   23.3045 O   0  0  0  0  0  0  0  0  0  0  0  0
   13.7965   -0.6081   25.1916 C   0  0  1  0  0  0  0  0  0  0  0  0
   13.0371    0.4853   25.8355 N   0  0  0  0  0  0  0  0  0  0  0  0
   13.2529   -1.9943   25.5717 C   0  0  2  0  0  0  0  0  0  0  0  0
   14.2175   -2.9944   25.1914 O   0  0  0  0  0  0  0  0  0  0  0  0
   10.4936   -4.9165   26.9148 C   0  0  2  0  0  0  0  0  0  0  0  0
   10.5591   -6.1525   26.1160 N   0  0  0  0  0  0  0  0  0  0  0  0
    9.3521   -5.0004   27.9385 C   0  0  0  0  0  0  0  0  0  0  0  0
    8.0303   -4.3975   27.4380 C   0  0  2  0  0  0  0  0  0  0  0  0
    6.9029   -4.9928   28.1802 N   0  0  0  0  0  0  0  0  0  0  0  0
    4.3158   -4.8874   25.3055 C   0  0  1  0  0  0  0  0  0  0  0  0
    3.9051   -3.5889   25.8954 N   0  0  0  0  0  0  0  0  0  0  0  0
    3.2877   -5.2731   24.2297 C   0  0  0  0  0  0  0  0  0  0  0  0
    3.9409   -6.1285   23.1527 C   0  0  2  0  0  0  0  0  0  0  0  0
    4.4086   -7.3392   23.7577 O   0  0  0  0  0  0  0  0  0  0  0  0
  1  2  1  0
  3  2  1  1
  3  4  1  0
  4  5  1  0
  5  6  1  1
  7  6  1  6
  7  8  1  0
  8  9  1  1
  8 10  1  0
 10 11  1  6
 12 11  1  6
 12 13  1  0
 13 14  1  0
 14 15  1  1
 15 16  1  0
 14 17  1  0
 17 18  1  1
 17 19  1  0
 19 20  1  1
 19 21  1  0
 21 22  1  6
 10 23  1  0
 23 24  1  6
 23 25  1  0
 25 26  1  0
 26 27  1  1
  5 28  1  0
 28 29  1  6
 28 30  1  0
 30 31  1  0
 31 32  1  1
 31  3  1  0
 26  7  1  0
 21 12  1  0
M  END
