@<TRIPOS>MOLECULE
lig.pdb
62 65 3 0 0
SMALL
AMBER ff14SB


@<TRIPOS>ATOM
      1 C01         9.5020    6.9410   25.7120 C.ar      1 ICB   -0.1690
      2 C02         9.4760    7.5120   24.4400 C.ar      1 ICB   -0.1110
      3 C03         9.4290    6.7020   23.3220 C.ar      1 ICB   -0.1480
      4 C04         9.4140    5.2940   23.4780 C.ar      1 ICB   -0.0113
      5 C05         9.4450    4.7320   24.7250 C.ar      1 ICB   -0.0980
      6 C06         9.4900    5.5600   25.8660 C.ar      1 ICB   -0.0730
      7 C07         9.4160    3.3200   24.5340 C.ar      1 ICB   -0.1530
      8 C08         9.3550    3.1070   23.1670 C.ar      1 ICB    0.0003
      9 N09         9.3730    4.2870   22.5510 N.ar      1 ICB   -0.2064
     10 C10         9.3530    1.7330   22.4440 C.2       1 ICB    0.5938
     11 O11         9.2060    1.6700   21.2840 O.2       1 ICB   -0.6341
     12 H01         9.5317    7.5771   26.5843 H         1 ICB    0.1240
     13 H02         9.4926    8.5862   24.3291 H         1 ICB    0.1230
     14 H03         9.4038    7.1395   22.3349 H         1 ICB    0.1310
     15 H06         9.5150    5.1233   26.8535 H         1 ICB    0.1330
     16 H07         9.4374    2.5638   25.3048 H         1 ICB    0.1640
     17 H09         9.3586    4.4196   21.5499 H         1 ICB    0.3177
     18 N           9.6100    0.5120   23.2400 N.am      2 ICB   -0.5169
     19 CA          9.6690   -0.7320   22.5570 C.3       2 ICB    0.0097
     20 C           8.3100   -1.1640   22.0230 C.2       2 ICB    0.6111
     21 O           7.3150   -0.9670   22.6260 O.2       2 ICB   -0.6781
     22 CB         10.1880   -1.8400   23.5170 C.3       2 ICB   -0.0834
     23 CG         11.5940   -1.4790   24.1580 C.3       2 ICB   -0.0577
     24 CD1        12.0000   -2.6210   25.0940 C.3       2 ICB   -0.0809
     25 CD2        12.6380   -1.2960   23.0500 C.3       2 ICB   -0.0809
     26 CE1        13.3860   -2.3850   25.6990 C.3       2 ICB   -0.0729
     27 CE2        14.0200   -1.0190   23.6500 C.3       2 ICB   -0.0729
     28 CZ         14.4410   -2.1260   24.6140 C.3       2 ICB   -0.0764
     29 H           9.7397    0.5619   24.2404 H         2 ICB    0.3295
     30 HA         10.3616   -0.6402   21.7203 H         2 ICB    0.0927
     31 HB2         9.4626   -1.9752   24.3193 H         2 ICB    0.0622
     32 HB3        10.2809   -2.7739   22.9626 H         2 ICB    0.0622
     33 HG         11.5058   -0.5552   24.7297 H         2 ICB    0.0497
     34 HD12       12.0142   -3.5533   24.5295 H         2 ICB    0.0479
     35 HD13       11.2683   -2.7013   25.8979 H         2 ICB    0.0479
     36 HD22       12.3469   -0.4561   22.4192 H         2 ICB    0.0479
     37 HD23       12.6833   -2.2016   22.4451 H         2 ICB    0.0479
     38 HE12       13.3401   -1.5202   26.3609 H         2 ICB    0.0327
     39 HE13       13.6769   -3.2619   26.2774 H         2 ICB    0.0327
     40 HE22       13.9891   -0.0722   24.1892 H         2 ICB    0.0327
     41 HE23       14.7516   -0.9484   22.8451 H         2 ICB    0.0327
     42 HZ2        14.5942   -3.0446   24.0476 H         2 ICB    0.0322
     43 HZ3        15.3791   -1.8430   25.0915 H         2 ICB    0.0322
     44 N           8.3490   -1.8810   20.7640 N.am      3 ICB   -0.4609
     45 CA          7.0950   -2.3920   20.1760 C.3       3 ICB   -0.1232
     46 CAE         4.3770    1.4000   19.6520 C.2       3 ICB   -0.1054
     47 C           7.1600   -3.8710   19.8090 C.2       3 ICB    0.1364
     48 O           6.1490   -4.4200   19.5360 O.2       3 ICB   -0.7025
     49 NAH         4.7140    1.6950   18.4610 N.am      3 ICB   -0.4991
     50 OAD         6.5690    0.8090   17.1510 O.2       3 ICB   -0.6335
     51 CB          6.6380   -1.5490   18.9710 C.3       3 ICB   -0.0434
     52 CG          6.2300   -0.0420   19.4720 C.3       3 ICB   -0.1015
     53 CD1         5.1810   -0.0510   20.0670 C.2       3 ICB   -0.1962
     54 CD2         5.9550    0.8310   18.1490 C.2       3 ICB    0.6785
     55 HA          6.3249   -2.2911   20.9408 H         3 ICB    0.0387
     56 HAE         3.7064    1.9627   20.2845 H         3 ICB    0.1450
     57 HAH         4.2628    2.3576   17.8466 H         3 ICB    0.3045
     58 HB2         7.4501   -1.4823   18.2471 H         3 ICB    0.0537
     59 HB3         5.7741   -2.0222   18.5042 H         3 ICB    0.0537
     60 HG          7.0219    0.3994   20.0772 H         3 ICB    0.0917
     61 HD1         4.8206   -0.8230   20.7308 H         3 ICB    0.1890
     62 H           9.2292   -2.0302   20.2916 H         3 ICB    0.3065
@<TRIPOS>BOND
     1    1    2 ar
     2    1    6 ar
     3    2    3 ar
     4    3    4 ar
     5    4    5 ar
     6    4    9 ar
     7    5    6 ar
     8    5    7 ar
     9    7    8 ar
    10    8    9 ar
    11    8   10 1
    12   10   11 2
    13   10   18 am
    14   18   19 1
    15   19   20 1
    16   19   22 1
    17   20   21 2
    18   20   44 am
    19   22   23 1
    20   23   24 1
    21   23   25 1
    22   24   26 1
    23   25   27 1
    24   26   28 1
    25   27   28 1
    26   44   45 1
    27   45   47 1
    28   45   51 1
    29   46   53 2
    30   46   49 1
    31   47   48 2
    32   49   54 am
    33   50   54 2
    34   51   52 1
    35   52   53 1
    36   52   54 1
    37   12    1 1
    38   13    2 1
    39   14    3 1
    40   15    6 1
    41   16    7 1
    42   29   18 1
    43   30   19 1
    44   31   22 1
    45   32   22 1
    46   33   23 1
    47   34   24 1
    48   35   24 1
    49   36   25 1
    50   37   25 1
    51   38   26 1
    52   39   26 1
    53   40   27 1
    54   41   27 1
    55   42   28 1
    56   43   28 1
    57   55   45 1
    58   56   46 1
    59   57   49 1
    60   58   51 1
    61   59   51 1
    62   60   52 1
    63   61   53 1
    64   17    9 1
    65   62   44 1
@<TRIPOS>SUBSTRUCTURE
     1 ICB     1 RESIDUE           4 D     ICB     1 ROOT
     2 ALC    19 RESIDUE           4 D     ALC     2
     3 ELL    45 RESIDUE           4 D     ELL     1
