@<TRIPOS>MOLECULE
AAH
 14 14 1 0 0
SMALL
No Charge or Current Charge


@<TRIPOS>ATOM
      1 C1         28.0550    7.2540    4.4480 C.ar    1  AAH         0.0000
      2 C2         27.8540    6.7390    3.1620 C.ar    1  AAH         0.0000
      3 C3         27.2290    6.8480    5.5020 C.ar    1  AAH         0.0000
      4 N4         29.0830    8.1780    4.6790 N.pl3   1  AAH         0.0000
      5 C5         26.8260    5.8160    2.9310 C.ar    1  AAH         0.0000
      6 C6         26.2010    5.9250    5.2720 C.ar    1  AAH         0.0000
      7 C7         26.0000    5.4090    3.9860 C.ar    1  AAH         0.0000
      8 F8         26.6310    5.3180    1.6910 F       1  AAH         0.0000
      9 F9         25.4050    5.5330    6.2880 F       1  AAH         0.0000
     10 H10        28.4800    7.0470    2.3630 H       1  AAH         0.0000
     11 H11        27.3810    7.2390    6.4770 H       1  AAH         0.0000
     12 H12        29.6710    8.4670    3.9300 H       1  AAH         0.0000
     13 H13        29.2270    8.5450    5.5930 H       1  AAH         0.0000
     14 H14        25.2210    4.7100    3.8100 H       1  AAH         0.0000
@<TRIPOS>BOND
     1     1     2   ar
     2     1     3   ar
     3     1     4    1
     4     2     5   ar
     5     2    10    1
     6     3     6   ar
     7     3    11    1
     8     4    12    1
     9     4    13    1
    10     5     7   ar
    11     5     8    1
    12     6     7   ar
    13     6     9    1
    14     7    14    1
@<TRIPOS>SUBSTRUCTURE
     1 AAH         1 TEMP              0 ****  ****    0 ROOT

@<TRIPOS>AMBER_SCORE_ID
lig.1



