@<TRIPOS>MOLECULE
m4.pdb
32 32 1 0 0
SMALL
AMBER ff14SB


@<TRIPOS>ATOM
      1 N1          1.6840    1.2860   -3.0070 N.pl3     1 UNL   -0.6876
      2 N2          2.3250    1.2250   -1.7380 N.3       1 UNL   -0.2689
      3 O1          3.6700    0.6990   -1.8820 O.3       1 UNL   -0.4743
      4 C1          1.6520    0.1770   -0.9920 C.3       1 UNL    0.3192
      5 N3          0.7320    0.7640   -0.0550 N.am      1 UNL   -0.4638
      6 C2          1.2890    1.4100    1.0210 C.2       1 UNL    0.6809
      7 O2          0.6800    1.7620    2.0200 O.2       1 UNL   -0.5971
      8 C3         -0.6950    0.2950   -0.0220 C.3       1 UNL    0.3216
      9 C4         -1.5960    1.4950    0.2630 C.3       1 UNL    0.1174
     10 O3         -2.9710    1.2290    0.0220 O.3       1 UNL   -0.6028
     11 N4         -1.0840   -0.3630   -1.3000 N.3       1 UNL   -0.6280
     12 N5         -1.5700   -1.5290   -0.6190 N.3       1 UNL   -0.1589
     13 O4         -0.8910   -2.7230   -1.0880 O.3       1 UNL   -0.4013
     14 C5         -0.9330   -1.1280    0.6750 C.3       1 UNL    0.3712
     15 N6         -1.9580   -1.0710    1.7290 N.3       1 UNL   -0.5187
     16 O5         -1.4400   -0.2170    2.7790 O.3       1 UNL   -0.3853
     17 O6          0.2260   -1.9510    0.9970 O.3       1 UNL   -0.2188
     18 O7          0.8800   -1.3600    2.1470 O.3       1 UNL   -0.3950
     19 HC2         1.1054   -0.4654   -1.6824 H         1 UNL    0.0727
     20 HC3         2.3906   -0.4158   -0.4524 H         1 UNL    0.0727
     21 HC          2.3470    1.6234    0.9812 H         1 UNL    0.0462
     22 HC4        -1.2854    2.3215   -0.3762 H         1 UNL    0.0912
     23 HC5        -1.4715    1.7894    1.3051 H         1 UNL    0.0912
     24 HN1         2.1447    1.4965   -3.8808 H         1 UNL    0.3618
     25 HN2         0.6909    1.1046   -3.0362 H         1 UNL    0.3618
     26 HO          0.0314   -2.6919   -0.8236 H         1 UNL    0.4020
     27 HO1        -0.5062   -0.3986    2.9083 H         1 UNL    0.4160
     28 HO2         1.2214   -2.0559    2.7134 H         1 UNL    0.4180
     29 HO3         4.2087    1.3259   -2.3702 H         1 UNL    0.4290
     30 HO4        -3.4882    2.0140    0.2166 H         1 UNL    0.4310
     31 HN         -1.8001    0.1352   -1.8091 H         1 UNL    0.4238
     32 HN3        -2.1283   -1.9977    2.0928 H         1 UNL    0.3728
@<TRIPOS>BOND
     1    1    2 1
     2    2    3 1
     3    2    4 1
     4    4    5 1
     5    5    6 am
     6    5    8 1
     7    6    7 2
     8    8    9 1
     9    8   11 1
    10    8   14 1
    11    9   10 1
    12   11   12 1
    13   12   13 1
    14   12   14 1
    15   14   15 1
    16   14   17 1
    17   15   16 1
    18   17   18 1
    19   19    4 1
    20   20    4 1
    21   21    6 1
    22   22    9 1
    23   23    9 1
    24   24    1 1
    25   25    1 1
    26   26   13 1
    27   27   16 1
    28   28   18 1
    29   29    3 1
    30   30   10 1
    31   31   11 1
    32   32   15 1
@<TRIPOS>SUBSTRUCTURE
     1 UNL     1 RESIDUE           4 A     UNL     0 ROOT
