@<TRIPOS>MOLECULE
m5.pdb
28 28 1 0 0
SMALL
AMBER ff14SB


@<TRIPOS>ATOM
      1 O1         -4.2580    1.8550    0.5800 O.3       1 UNL   -0.4543
      2 N1         -3.4140    0.6890    0.4000 N.3       1 UNL   -0.3315
      3 N2         -2.0470    1.0850    0.2380 N.3       1 UNL   -0.6040
      4 C1         -1.1070   -0.0730    0.1280 C.3       1 UNL    0.7738
      5 N3         -1.3690   -0.9850    1.2710 N.3       1 UNL   -0.5402
      6 O2         -0.7850   -2.2780    0.9820 O.3       1 UNL   -0.4058
      7 N4         -1.2780   -0.6930   -1.2090 N.3       1 UNL   -0.5402
      8 O3         -2.5200   -1.4430   -1.2080 O.3       1 UNL   -0.4058
      9 N5          0.2120    0.6130    0.1630 N.3       1 UNL   -0.5974
     10 N6          1.0560    0.1770    1.2270 N.3       1 UNL   -0.2299
     11 O4          1.8650    1.2820    1.7080 O.3       1 UNL   -0.3853
     12 C2          1.4090   -0.1490   -0.1550 C.3       1 UNL    0.7384
     13 O5          1.3130   -1.5340   -0.5150 O.3       1 UNL   -0.5818
     14 N7          2.4410    0.6250   -0.8610 N.3       1 UNL   -0.5900
     15 N8          3.7130    0.0420   -0.5750 N.3       1 UNL   -0.2955
     16 O6          4.7690    0.7880   -1.2320 O.3       1 UNL   -0.4673
     17 H3         -3.2569   -0.8424   -1.0746 H         1 UNL    0.4080
     18 HN1        -3.4949    0.0895    1.2088 H         1 UNL    0.3938
     19 HO2        -0.0357   -2.1666    0.3923 H         1 UNL    0.4080
     20 H5          1.1608   -1.6090   -1.4599 H         1 UNL    0.4640
     21 H1         -5.1705    1.5766    0.6873 H         1 UNL    0.4270
     22 H7          2.2685    0.5936   -1.8557 H         1 UNL    0.4168
     23 HN3        -0.9538   -0.6053    2.1098 H         1 UNL    0.3693
     24 HN4        -1.3167    0.0277   -1.9155 H         1 UNL    0.3693
     25 H6          5.6175    0.3861   -1.0318 H         1 UNL    0.4350
     26 H4          1.6234    1.4852    2.6146 H         1 UNL    0.4330
     27 H8          3.7244   -0.9131   -0.9033 H         1 UNL    0.3958
     28 H2         -1.9677    1.6497   -0.5956 H         1 UNL    0.3978
@<TRIPOS>BOND
     1    1    2 1
     2    2    3 1
     3    3    4 1
     4    4    5 1
     5    4    7 1
     6    4    9 1
     7    5    6 1
     8    7    8 1
     9    9   10 1
    10    9   12 1
    11   10   11 1
    12   10   12 1
    13   12   13 1
    14   12   14 1
    15   14   15 1
    16   15   16 1
    17   17    8 1
    18   18    2 1
    19   19    6 1
    20   20   13 1
    21   21    1 1
    22   22   14 1
    23   23    5 1
    24   24    7 1
    25   25   16 1
    26   26   11 1
    27   27   15 1
    28   28    3 1
@<TRIPOS>SUBSTRUCTURE
     1 UNL     1 RESIDUE           4 A     UNL     0 ROOT
