@<TRIPOS>MOLECULE
*****
 47 48 0 0 0
SMALL
GASTEIGER

@<TRIPOS>ATOM
      1 C           0.4494    1.9349    3.4383 C.3     1  UNL1       -0.0629
      2 C          -0.8230    1.4527    2.7846 C.3     1  UNL1       -0.0282
      3 C          -1.1115    0.0121    3.1463 C.3     1  UNL1        0.0705
      4 O          -1.3659   -0.0775    4.5402 O.3     1  UNL1       -0.3903
      5 C          -2.2918   -0.5295    2.3495 C.3     1  UNL1        0.0368
      6 C          -2.8188   -1.8417    2.9078 C.3     1  UNL1       -0.0349
      7 C          -4.0953   -2.2460    2.2022 C.3     1  UNL1       -0.0504
      8 C          -3.8821   -2.2630    0.7043 C.3     1  UNL1       -0.0401
      9 C          -3.2896   -0.9514    0.2193 C.3     1  UNL1       -0.0003
     10 N          -2.0561   -0.5758    0.9059 N.3     1  UNL1       -0.2886
     11 C          -1.0067   -1.5514    0.5782 C.3     1  UNL1        0.0763
     12 C          -0.3590   -1.2059   -0.7480 C.2     1  UNL1        0.2313
     13 O          -0.7354   -1.6995   -1.8073 O.2     1  UNL1       -0.2741
     14 N           0.6798   -0.3133   -0.5574 N.am    1  UNL1       -0.2844
     15 C           1.4927    0.2415   -1.5514 C.ar    1  UNL1        0.0337
     16 C           1.3429   -0.0490   -2.9049 C.ar    1  UNL1       -0.0394
     17 C           2.1863    0.5413   -3.8423 C.ar    1  UNL1       -0.0458
     18 C           3.1812    1.4245   -3.4264 C.ar    1  UNL1        0.0209
     19 BR          4.2880    2.1862   -4.7568 Br      1  UNL1       -0.0500
     20 C           3.3399    1.7235   -2.0724 C.ar    1  UNL1       -0.0347
     21 C           4.3856    2.6612   -1.5731 C.3     1  UNL1       -0.0386
     22 C           2.4894    1.1262   -1.1405 C.ar    1  UNL1       -0.0365
     23 H           0.6268    2.9540    3.1648 H       1  UNL1        0.0231
     24 H           1.2695    1.3301    3.1119 H       1  UNL1        0.0231
     25 H           0.3538    1.8624    4.5015 H       1  UNL1        0.0231
     26 H          -0.7217    1.5324    1.7224 H       1  UNL1        0.0288
     27 H          -1.6335    2.0584    3.1325 H       1  UNL1        0.0288
     28 H          -0.2580   -0.5846    2.9005 H       1  UNL1        0.0609
     29 H          -2.1396    0.4634    4.7631 H       1  UNL1        0.2098
     30 H          -3.0754    0.1878    2.4775 H       1  UNL1        0.0488
     31 H          -3.0164   -1.7252    3.9529 H       1  UNL1        0.0281
     32 H          -2.0829   -2.6029    2.7530 H       1  UNL1        0.0281
     33 H          -4.8682   -1.5457    2.4412 H       1  UNL1        0.0266
     34 H          -4.3774   -3.2262    2.5256 H       1  UNL1        0.0266
     35 H          -4.8228   -2.4215    0.2196 H       1  UNL1        0.0278
     36 H          -3.1986   -3.0516    0.4681 H       1  UNL1        0.0278
     37 H          -4.0116   -0.1769    0.3735 H       1  UNL1        0.0427
     38 H          -3.0455   -1.0813   -0.8143 H       1  UNL1        0.0427
     39 H          -1.4402   -2.5276    0.5150 H       1  UNL1        0.0522
     40 H          -0.2607   -1.5291    1.3449 H       1  UNL1        0.0522
     41 H           0.8658   -0.0412    0.3703 H       1  UNL1        0.1548
     42 H           0.6061   -0.7024   -3.2135 H       1  UNL1        0.0636
     43 H           2.0748    0.3249   -4.8452 H       1  UNL1        0.0629
     44 H           4.9535    3.0348   -2.3994 H       1  UNL1        0.0278
     45 H           5.0355    2.1442   -0.8984 H       1  UNL1        0.0278
     46 H           3.9184    3.4777   -1.0632 H       1  UNL1        0.0278
     47 H           2.5993    1.3415   -0.1372 H       1  UNL1        0.0639
@<TRIPOS>BOND
     1     1     2    1
     2     2     3    1
     3     3     4    1
     4     3     5    1
     5     5     6    1
     6     6     7    1
     7     7     8    1
     8     8     9    1
     9     9    10    1
    10    10    11    1
    11    11    12    1
    12    12    13    2
    13    12    14   am
    14    14    15    1
    15    15    16   ar
    16    16    17   ar
    17    17    18   ar
    18    18    19    1
    19    18    20   ar
    20    20    21    1
    21    20    22   ar
    22    10     5    1
    23    22    15   ar
    24     1    23    1
    25     1    24    1
    26     1    25    1
    27     2    26    1
    28     2    27    1
    29     3    28    1
    30     4    29    1
    31     5    30    1
    32     6    31    1
    33     6    32    1
    34     7    33    1
    35     7    34    1
    36     8    35    1
    37     8    36    1
    38     9    37    1
    39     9    38    1
    40    11    39    1
    41    11    40    1
    42    14    41    1
    43    16    42    1
    44    17    43    1
    45    21    44    1
    46    21    45    1
    47    21    46    1
    48    22    47    1
