@<TRIPOS>MOLECULE
*****
 53 55 0 0 0
SMALL
GASTEIGER

@<TRIPOS>ATOM
      1 C           1.0543   -0.4345    1.3996 C.3     1  UNL1       -0.0478
      2 C           1.6885    0.6072    0.4966 C.3     1  UNL1        0.0263
      3 C           0.8942    0.9078   -0.7658 C.3     1  UNL1        0.0399
      4 C           1.4523   -0.0001   -1.8401 C.3     1  UNL1       -0.0202
      5 C           2.6835   -0.6263   -1.2119 C.3     1  UNL1        0.0013
      6 N           2.9899    0.2085   -0.0504 N.3     1  UNL1       -0.2937
      7 C           3.7613   -0.5766    0.8988 C.3     1  UNL1        0.0244
      8 C           5.2168   -0.2553    0.8499 C.ar    1  UNL1       -0.0334
      9 C           6.0745   -1.0114    0.0508 C.ar    1  UNL1       -0.0573
     10 C           7.4362   -0.7206    0.0165 C.ar    1  UNL1       -0.0615
     11 C           7.9444    0.3233    0.7855 C.ar    1  UNL1       -0.0617
     12 C           7.0924    1.0754    1.5903 C.ar    1  UNL1       -0.0615
     13 C           5.7307    0.7849    1.6247 C.ar    1  UNL1       -0.0573
     14 N          -0.5404    0.9102   -0.6616 N.am    1  UNL1       -0.3069
     15 C          -1.3268   -0.2166   -0.6169 C.2     1  UNL1        0.2479
     16 O          -0.9068   -1.3650   -0.7198 O.2     1  UNL1       -0.2701
     17 C          -2.7802    0.0284   -0.4855 C.ar    1  UNL1        0.0797
     18 C          -3.6097   -0.8810   -1.1442 C.ar    1  UNL1       -0.0259
     19 C          -4.9960   -0.7436   -1.0970 C.ar    1  UNL1        0.0627
     20 C          -5.5923    0.3051   -0.3817 C.ar    1  UNL1        0.0490
     21 C          -4.7395    1.1935    0.2867 C.ar    1  UNL1        0.0031
     22 C          -3.3452    1.0728    0.2539 C.ar    1  UNL1        0.1340
     23 O          -2.5264    1.9142    0.9571 O.3     1  UNL1       -0.4943
     24 C          -3.2523    2.9379    1.6287 C.3     1  UNL1        0.0788
     25 N          -6.9894    0.4455   -0.3417 N.pl3   1  UNL1       -0.3457
     26 C          -7.4837    1.5640    0.4361 C.3     1  UNL1       -0.0024
     27 CL         -5.9306   -1.9115   -1.9587 Cl      1  UNL1       -0.0816
     28 H           0.1132   -0.0716    1.7567 H       1  UNL1        0.0245
     29 H           1.7006   -0.6275    2.2302 H       1  UNL1        0.0245
     30 H           0.9019   -1.3390    0.8486 H       1  UNL1        0.0245
     31 H           1.7465    1.4420    1.1634 H       1  UNL1        0.0478
     32 H           1.0322    1.9392   -1.0149 H       1  UNL1        0.0514
     33 H           1.7175    0.5633   -2.7103 H       1  UNL1        0.0296
     34 H           0.7424   -0.7341   -2.1596 H       1  UNL1        0.0296
     35 H           3.5005   -0.6218   -1.9029 H       1  UNL1        0.0427
     36 H           2.5165   -1.6469   -0.9373 H       1  UNL1        0.0427
     37 H           3.6304   -1.6144    0.6734 H       1  UNL1        0.0476
     38 H           3.4075   -0.3419    1.8810 H       1  UNL1        0.0476
     39 H           5.6993   -1.7878   -0.5161 H       1  UNL1        0.0621
     40 H           8.0683   -1.2785   -0.5786 H       1  UNL1        0.0618
     41 H           8.9531    0.5397    0.7589 H       1  UNL1        0.0618
     42 H           7.4699    1.8479    2.1611 H       1  UNL1        0.0618
     43 H           5.1006    1.3402    2.2245 H       1  UNL1        0.0621
     44 H          -0.9928    1.7836   -0.6191 H       1  UNL1        0.1493
     45 H          -3.1920   -1.6634   -1.6718 H       1  UNL1        0.0641
     46 H          -5.1564    1.9688    0.8254 H       1  UNL1        0.0673
     47 H          -2.5708    3.5672    2.1620 H       1  UNL1        0.0660
     48 H          -3.9409    2.4940    2.3169 H       1  UNL1        0.0660
     49 H          -3.7909    3.5221    0.9121 H       1  UNL1        0.0660
     50 H          -7.5929   -0.1749   -0.8110 H       1  UNL1        0.1458
     51 H          -6.6577    2.1000    0.8547 H       1  UNL1        0.0425
     52 H          -8.1098    1.2013    1.2243 H       1  UNL1        0.0425
     53 H          -8.0485    2.2165   -0.1965 H       1  UNL1        0.0425
@<TRIPOS>BOND
     1     2     1    1
     2     2     3    1
     3     3     4    1
     4     4     5    1
     5     5     6    1
     6     6     7    1
     7     7     8    1
     8     8     9   ar
     9     9    10   ar
    10    10    11   ar
    11    11    12   ar
    12    12    13   ar
    13     3    14    1
    14    14    15   am
    15    15    16    2
    16    15    17    1
    17    17    18   ar
    18    18    19   ar
    19    19    20   ar
    20    20    21   ar
    21    21    22   ar
    22    22    23    1
    23    23    24    1
    24    20    25    1
    25    25    26    1
    26    19    27    1
    27     6     2    1
    28    13     8   ar
    29    22    17   ar
    30     1    28    1
    31     1    29    1
    32     1    30    1
    33     2    31    1
    34     3    32    1
    35     4    33    1
    36     4    34    1
    37     5    35    1
    38     5    36    1
    39     7    37    1
    40     7    38    1
    41     9    39    1
    42    10    40    1
    43    11    41    1
    44    12    42    1
    45    13    43    1
    46    14    44    1
    47    18    45    1
    48    21    46    1
    49    24    47    1
    50    24    48    1
    51    24    49    1
    52    25    50    1
    53    26    51    1
    54    26    52    1
    55    26    53    1
