@<TRIPOS>MOLECULE
xtal-lig.pdb
54 56 1 0 0
SMALL
AMBER ff14SB


@<TRIPOS>ATOM
      1 CAB       -16.7470   11.8070  -16.3750 C.3       1 DRG    0.0422
      2 OAR       -16.4920   13.2000  -16.0830 O.3       1 DRG   -0.3485
      3 CAW       -15.6330   13.4560  -14.9780 C.ar      1 DRG    0.0890
      4 CAK       -15.2480   12.4410  -14.0860 C.ar      1 DRG   -0.0084
      5 CAV       -14.3930   12.7610  -13.0170 C.ar      1 DRG    0.0472
      6 NAP       -13.9850   11.7550  -12.0810 N.pl3     1 DRG   -0.3463
      7 CAA       -14.6880   10.4800  -12.0620 C.3       1 DRG   -0.0031
      8 CAU       -13.9070   14.0610  -12.8630 C.ar      1 DRG    0.0625
      9 CLAE      -12.7980   14.4640  -11.5670 Cl        1 DRG   -0.0823
     10 CAL       -14.2760   15.0520  -13.7480 C.ar      1 DRG   -0.0264
     11 CAX       -15.1220   14.7460  -14.8030 C.ar      1 DRG    0.0689
     12 CAS       -15.5130   15.9000  -15.7080 C.2       1 DRG    0.2460
     13 OAD       -14.9040   16.9450  -15.6000 O.2       1 DRG   -0.2718
     14 NAQ       -16.6220   15.7740  -16.6040 N.am      1 DRG   -0.3026
     15 CAZ       -17.0140   16.9090  -17.4320 C.3       1 DRG    0.0691
     16 CAY       -17.3990   16.5380  -18.7980 C.3       1 DRG   -0.0070
     17 CAC       -16.7630   15.1980  -19.2700 C.3       1 DRG   -0.0208
     18 CAM       -18.2210   17.5300  -16.7510 C.3       1 DRG    0.0102
     19 CAN       -19.3470   17.4010  -17.9130 C.3       1 DRG   -0.0318
     20 NBA       -18.7880   16.3930  -18.8220 N.4       1 DRG    0.2533
     21 CAO       -19.2710   16.5350  -20.1590 C.3       1 DRG   -0.0081
     22 CAT       -20.8060   16.8170  -20.2250 C.ar      1 DRG   -0.0043
     23 CAI       -21.2600   18.0520  -20.6880 C.ar      1 DRG   -0.0538
     24 CAG       -22.6290   18.3270  -20.7520 C.ar      1 DRG   -0.0618
     25 CAF       -23.5470   17.3640  -20.3510 C.ar      1 DRG   -0.0622
     26 CAH       -23.1010   16.1350  -19.8880 C.ar      1 DRG   -0.0618
     27 CAJ       -21.7290   15.8540  -19.8220 C.ar      1 DRG   -0.0538
     28 HAK       -15.6036   11.4300  -14.2196 H         1 DRG    0.0671
     29 HAP       -13.2208   11.9281  -11.4437 H         1 DRG    0.1462
     30 HAL       -13.9086   16.0595  -13.6202 H         1 DRG    0.0649
     31 HAQ       -17.1307   14.9034  -16.6626 H         1 DRG    0.1503
     32 HAZ       -16.2009   17.6341  -17.4661 H         1 DRG    0.0565
     33 HAY       -17.1086   17.3349  -19.4826 H         1 DRG    0.0869
     34 HAM2      -18.5047   16.9734  -15.8578 H         1 DRG    0.0342
     35 HAM3      -18.0327   18.5763  -16.5103 H         1 DRG    0.0342
     36 HAN2      -20.2980   17.0667  -17.4983 H         1 DRG    0.0815
     37 HAN3      -19.4709   18.3526  -18.4300 H         1 DRG    0.0815
     38 HBA       -19.0287   15.4732  -18.4812 H         1 DRG    0.2009
     39 HAO2      -18.7447   17.3639  -20.6324 H         1 DRG    0.0869
     40 HAO3      -19.0564   15.6197  -20.7107 H         1 DRG    0.0869
     41 HAI       -20.5479   18.8019  -20.9996 H         1 DRG    0.0628
     42 HAG       -22.9724   19.2855  -21.1122 H         1 DRG    0.0623
     43 HAF       -24.6056   17.5721  -20.3998 H         1 DRG    0.0623
     44 HAH       -23.8163   15.3885  -19.5758 H         1 DRG    0.0623
     45 HAJ       -21.3888   14.8949  -19.4602 H         1 DRG    0.0628
     46 HAA1      -14.3342    9.8819  -11.2222 H         1 DRG    0.0429
     47 HAA2      -14.4978    9.9466  -12.9933 H         1 DRG    0.0429
     48 HAA3      -15.7584   10.6568  -11.9567 H         1 DRG    0.0429
     49 HAC1      -16.8893   15.0950  -20.3477 H         1 DRG    0.0288
     50 HAC2      -17.2539   14.3656  -18.7657 H         1 DRG    0.0288
     51 HAC3      -15.7005   15.1946  -19.0268 H         1 DRG    0.0288
     52 HAB1      -17.3367   11.7287  -17.2884 H         1 DRG    0.0536
     53 HAB2      -17.2969   11.3575  -15.5482 H         1 DRG    0.0536
     54 HAB3      -15.7998   11.2844  -16.5081 H         1 DRG    0.0536
@<TRIPOS>BOND
     1    1    2 1
     2    2    3 1
     3    3    4 ar
     4    3   11 ar
     5    4    5 ar
     6    5    6 1
     7    5    8 ar
     8    6    7 1
     9    8    9 1
    10    8   10 ar
    11   10   11 ar
    12   11   12 1
    13   12   13 2
    14   12   14 am
    15   14   15 1
    16   15   16 1
    17   15   18 1
    18   16   17 1
    19   16   20 1
    20   18   19 1
    21   19   20 1
    22   20   21 1
    23   21   22 1
    24   22   23 ar
    25   22   27 ar
    26   23   24 ar
    27   24   25 ar
    28   25   26 ar
    29   26   27 ar
    30   28    4 1
    31   29    6 1
    32   30   10 1
    33   31   14 1
    34   32   15 1
    35   33   16 1
    36   34   18 1
    37   35   18 1
    38   36   19 1
    39   37   19 1
    40   38   20 1
    41   39   21 1
    42   40   21 1
    43   41   23 1
    44   42   24 1
    45   43   25 1
    46   44   26 1
    47   45   27 1
    48   46    7 1
    49   47    7 1
    50   48    7 1
    51   49   17 1
    52   50   17 1
    53   51   17 1
    54   52    1 1
    55   53    1 1
    56   54    1 1
@<TRIPOS>SUBSTRUCTURE
     1 DRG     1 RESIDUE           4 C     DRG     0 ROOT
